<routes xmlns:xsi="http://www.w3.org/2001/XMLSchema-instance" xsi:noNamespaceSchemaLocation="http://sumo.dlr.de/xsd/routes_file.xsd">

	<vType id="truck" accel="1.0" decel="4.5" sigma="0.5" length="10" maxSpeed="25" color="1,0,0" /><vType id="sedan" accel="2.6" decel="4.5" sigma="0.5" length="4.5" maxSpeed="33.3" color="0,0,1" /><vType id="bus" accel="1.3" decel="4.0" sigma="0.5" length="12" maxSpeed="20" color="0,1,0" /><vType id="emergency" accel="3.0" decel="5.0" sigma="0.2" length="5" maxSpeed="40" color="1,1,0" /><vType id="motorcycle" accel="2.5" decel="4.0" sigma="0.5" length="2.5" width="1.0" maxSpeed="28" color="1,0.5,0" />
    <vehicle id="1" depart="0.00" type="sedan" departSpeed="5.0">
        <route edges="50437161 688214482 688214484#0 688214484#1 687443515 672153002#0 672153002#1 672153002#2 672153002#3 672153002#4 672153002#5 672153002#6" />
    </vehicle>
    <vehicle id="2" depart="0.00" type="sedan" departSpeed="5.0">
        <route edges="688169646 688169645 688169644#0 688169644#1 688169644#2 688169643#0 688169643#1 688169643#2 688170737" />
    </vehicle>
    <vehicle id="3" depart="0.00" type="sedan" departSpeed="5.0">
        <route edges="688171462#0 688171462#1 688171462#2 688171462#3 672153002#0 672153002#1 672153002#2 672153002#3" />
    </vehicle>
    <vehicle id="5" depart="0.00" type="sedan" departSpeed="5.0">
        <route edges="50437161 688214482 688214484#0 688214484#1 687443515 672153002#0 687443514 687376010#0 687376010#1 687376010#2 687376010#3 687376010#4" />
    </vehicle>
    <vehicle id="6" depart="0.00" type="sedan" departSpeed="5.0">
        <route edges="412441780#0 412441780#1 412441780#2 672153002#1 672153002#2 672153002#3 672153002#4 672153002#5 672153002#6" />
    </vehicle>
    <vehicle id="7" depart="0.00" type="sedan" departSpeed="5.0">
        <route edges="688169646 688169645 688169644#0 688169644#1 687376010#0 687376010#1 687376010#2 687376010#3 687376010#4" />
    </vehicle>
    <vehicle id="8" depart="0.00" type="sedan" departSpeed="5.0">
        <route edges="50437161 688214482 688214484#0 688214484#1 687443515 672153002#0 687443514 687376010#0 687376010#1 687376010#2 687376010#3 687376010#4" />
    </vehicle>
    <vehicle id="10" depart="0.00" type="sedan" departSpeed="5.0">
        <route edges="688169646 688169645 688169644#0 688169644#1 688169644#2 688169643#0 688169643#1 688169643#2 688170737" />
    </vehicle>
    <vehicle id="12" depart="0.00" type="sedan" departSpeed="5.0">
        <route edges="688171462#1 688171462#2 688171462#3 672153002#0 672153002#1 672153002#2 672153002#3 672153002#4 672153002#5 672153002#6" />
    </vehicle>
    <vehicle id="13" depart="0.00" type="sedan" departSpeed="5.0">
        <route edges="412441780#0 412441780#1 412441780#2 672153002#1 672153002#2 672153002#3 672153002#4" />
    </vehicle>
    <vehicle id="14" depart="0.00" type="sedan" departSpeed="5.0">
        <route edges="688171462#0 688171462#1 688171462#2 688171462#3 672153002#0 687443514 688169644#2 688169643#0 688169643#1 688169643#2" />
    </vehicle>
    <vehicle id="15" depart="0.00" type="sedan" departSpeed="5.0">
        <route edges="688170737" />
    </vehicle>
    <vehicle id="17" depart="0.00" type="sedan" departSpeed="5.0">
        <route edges="687376010#4" />
    </vehicle>
    <vehicle id="19" depart="0.00" type="sedan" departSpeed="5.0">
        <route edges="688171462#0 688171462#1 688171462#2 688171462#3 672153002#0 687443514 687376010#0 687376010#1 687376010#2 687376010#3 687376010#4" />
    </vehicle>
    <vehicle id="21" depart="0.00" type="sedan" departSpeed="5.0">
        <route edges="50437161 688214482 688214484#0 688214484#1 687443515 672153002#0 672153002#1 672153002#2 672153002#3 672153002#4 672153002#5 672153002#6" />
    </vehicle>
    <vehicle id="22" depart="0.00" type="sedan" departSpeed="5.0">
        <route edges="412441780#0 412441780#1 412441780#2 672153002#1 672153002#2 672153002#3 672153002#4 672153002#5 672153002#6" />
    </vehicle>
    <vehicle id="23" depart="0.00" type="sedan" departSpeed="5.0">
        <route edges="412441780#0 412441780#1 412441780#2 672153002#1 672153002#2 672153002#3 672153002#4 672153002#5 672153002#6" />
    </vehicle>
    <vehicle id="24" depart="0.00" type="sedan" departSpeed="5.0">
        <route edges="688169646 688169645 688169644#0 688169644#1 688169644#2 687443515 672153002#0 672153002#1 672153002#2 672153002#3 672153002#4 672153002#5 672153002#6" />
    </vehicle>
    <vehicle id="26" depart="0.00" type="bus" departSpeed="5.0">
        <route edges="50437161 688214482 688214484#0 688214484#1 687443515 672153002#0 687443514 687376010#0 687376010#1 687376010#2 688199692 688199690" />
    </vehicle>
    <vehicle id="27" depart="0.00" type="sedan" departSpeed="5.0">
        <route edges="688169646 688169645 688169644#0 688169644#1 688169644#2 688169643#0 688169643#1 688169643#2" />
    </vehicle>
    <vehicle id="28" depart="0.00" type="sedan" departSpeed="5.0">
        <route edges="50437158 688169643#2 688170737" />
    </vehicle>
    <vehicle id="30" depart="0.00" type="bus" departSpeed="5.0">
        <route edges="688214482 688214484#0 688214484#1 688169643#0 688169643#1 688169643#2 688170737" />
    </vehicle>
    <vehicle id="32" depart="0.00" type="sedan" departSpeed="5.0">
        <route edges="688171462#0 688171462#1 688171462#2 688171462#3 672153002#0 687443514 688169644#2 688169643#0 688169643#1 688169643#2 688170737" />
    </vehicle>
    <vehicle id="34" depart="0.00" type="sedan" departSpeed="5.0">
        <route edges="672153002#3 672153002#4 672153002#5 672153002#6" />
    </vehicle>
    <vehicle id="35" depart="0.00" type="sedan" departSpeed="5.0">
        <route edges="50437161 688214482 688214484#0 688214484#1 687443515 672153002#0 687443514 687376010#0 687376010#1 687376010#2 688199692 688199690" />
    </vehicle>
    <vehicle id="36" depart="0.00" type="sedan" departSpeed="5.0">
        <route edges="688171462#0 688171462#1 688171462#2 688171462#3 672153002#0 672153002#1 672153002#2 672153002#3 672153002#4 672153002#5 672153002#6" />
    </vehicle>
    <vehicle id="37" depart="0.00" type="sedan" departSpeed="5.0">
        <route edges="688169646 688169645 688169644#0 688169644#1 688169644#2 687443515 687375092#0 687375092#1" />
    </vehicle>
    <vehicle id="38" depart="0.00" type="sedan" departSpeed="5.0">
        <route edges="688171462#0 688171462#1 688171462#2 688171462#3 672153002#0 687443514 687376010#0 687376010#1 687376010#2 687376010#3" />
    </vehicle>
    <vehicle id="39" depart="0.00" type="sedan" departSpeed="5.0">
        <route edges="50437161 688214482 688214484#0 688214484#1 687443515 672153002#0 672153002#1 672153002#2 672153002#3 672153002#4 672153002#5 672153002#6" />
    </vehicle>
    <vehicle id="44" depart="0.00" type="sedan" departSpeed="5.0">
        <route edges="412441780#0 412441780#1" />
    </vehicle>
    <vehicle id="49" depart="0.00" type="sedan" departSpeed="5.0">
        <route edges="688199688#1 688170737" />
    </vehicle>
    <vehicle id="50" depart="0.00" type="sedan" departSpeed="5.0">
        <route edges="412441780#0 412441780#1 412441780#2 687443514 688169644#2 688169643#0 688169643#1 688169643#2 688170737" />
    </vehicle>
    <vehicle id="51" depart="0.00" type="sedan" departSpeed="5.0">
        <route edges="688169646 688169645 688169644#0 688169644#1 687376010#0 687376010#1 687376010#2 687376010#3 687376010#4" />
    </vehicle>
    <vehicle id="52" depart="0.00" type="sedan" departSpeed="5.0">
        <route edges="50437161 688214482 688214484#0 688214484#1 688169643#0 688169643#1 688169643#2 688170737" />
    </vehicle>
    <vehicle id="53" depart="0.00" type="sedan" departSpeed="5.0">
        <route edges="412441780#0 412441780#1 412441780#2 687443514 687376010#0 687376010#1" />
    </vehicle>
    <vehicle id="55" depart="0.00" type="sedan" departSpeed="5.0">
        <route edges="688171462#0 688171462#1 688171462#2 688171462#3 672153002#0 672153002#1 672153002#2 672153002#3 672153002#4 672153002#5 672153002#6" />
    </vehicle>
    <vehicle id="57" depart="0.00" type="sedan" departSpeed="5.0">
        <route edges="688171462#0 688171462#1 688171462#2 688171462#3 672153002#0 687443514 688169644#2 688169643#0 688169643#1 688169643#2 688170737" />
    </vehicle>
    <vehicle id="58" depart="0.00" type="sedan" departSpeed="5.0">
        <route edges="672153002#0 687443514 688169644#2 688169643#0 688169643#1 688169643#2 688170737" />
    </vehicle>
    <vehicle id="59" depart="0.00" type="sedan" departSpeed="5.0">
        <route edges="688169645 688169644#0 688169644#1 688169644#2 687443515 672153002#0 672153002#1 672153002#2 672153002#3 672153002#4 672153002#5 672153002#6" />
    </vehicle>
    <vehicle id="60" depart="0.00" type="sedan" departSpeed="5.0">
        <route edges="688169646 688169645 688169644#0 688169644#1 687376010#0 687376010#1 687376010#2 687376010#3 687376010#4" />
    </vehicle>
    <vehicle id="61" depart="0.00" type="sedan" departSpeed="5.0">
        <route edges="688169646 688169645 688169644#0 688169644#1 687376010#0 687376010#1 687376010#2 687376010#3 687376010#4" />
    </vehicle>
    <vehicle id="64" depart="0.00" type="sedan" departSpeed="5.0">
        <route edges="688171462#0 688171462#1 688171462#2 688171462#3 672153002#0 687443514 688169644#2 688169643#0 688169643#1 688169643#2 688170737" />
    </vehicle>
    <vehicle id="66" depart="0.00" type="sedan" departSpeed="5.0">
        <route edges="688171462#0 688171462#1 688171462#2 688171462#3 672153002#0 687443514 687376010#0 687376010#1 687376010#2 688199692 688199690" />
    </vehicle>
    <vehicle id="67" depart="0.00" type="sedan" departSpeed="5.0">
        <route edges="412441780#0 412441780#1 412441780#2 687443514 687376010#0 687376010#1 687376010#2 687376010#3 687376010#4" />
    </vehicle>
    <vehicle id="68" depart="0.00" type="sedan" departSpeed="5.0">
        <route edges="412441780#0 412441780#1 412441780#2 687443514 688169644#2 688169643#0 688169643#1 688169643#2 688170737" />
    </vehicle>
    <vehicle id="69" depart="0.00" type="sedan" departSpeed="5.0">
        <route edges="688169646 688169645 688169644#0 688169644#1 688169644#2 687443515 672153002#0 672153002#1 672153002#2 672153002#3 672153002#4 672153002#5 672153002#6" />
    </vehicle>
    <vehicle id="70" depart="0.00" type="sedan" departSpeed="5.0">
        <route edges="687376010#4" />
    </vehicle>
    <vehicle id="71" depart="0.00" type="sedan" departSpeed="5.0">
        <route edges="50437161 688214482 688214484#0 688214484#1 688169643#0 688169643#1 688169643#2 688170737" />
    </vehicle>
    <vehicle id="74" depart="0.00" type="sedan" departSpeed="5.0">
        <route edges="50437161 688214482 688214484#0 688214484#1 687443515 672153002#0 672153002#1 672153002#2 672153002#3 672153002#4 672153002#5 672153002#6" />
    </vehicle>
    <vehicle id="76" depart="0.00" type="sedan" departSpeed="5.0">
        <route edges="687376010#4" />
    </vehicle>
    <vehicle id="77" depart="0.00" type="sedan" departSpeed="5.0">
        <route edges="412441780#0 412441780#1 412441780#2 672153002#1 672153002#2 672153002#3 672153002#4 672153002#5 672153002#6" />
    </vehicle>
    <vehicle id="79" depart="0.00" type="sedan" departSpeed="5.0">
        <route edges="50437161 688214482 688214484#0 688214484#1 687443515 672153002#0 672153002#1 672153002#2 672153002#3 672153002#4 672153002#5 672153002#6" />
    </vehicle>
    <vehicle id="83" depart="0.00" type="sedan" departSpeed="5.0">
        <route edges="50437161 688214482 688214484#0 688214484#1 688169643#0 688169643#1 688169643#2 688170737" />
    </vehicle>
    <vehicle id="84" depart="0.00" type="sedan" departSpeed="5.0">
        <route edges="50437161 688214482 688214484#0 688214484#1 687443515 672153002#0 672153002#1 672153002#2 672153002#3 672153002#4 672153002#5 672153002#6" />
    </vehicle>
    <vehicle id="85" depart="0.00" type="motorcycle" departSpeed="5.0">
        <route edges="688171462#0 688171462#1 688171462#2 688171462#3 672153002#0 687443514 687376010#0 687376010#1 687376010#2 687376010#3 687376010#4" />
    </vehicle>
    <vehicle id="88" depart="0.00" type="sedan" departSpeed="5.0">
        <route edges="412441780#0 412441780#1 412441780#2 687443514 687376010#0 687376010#1" />
    </vehicle>
    <vehicle id="90" depart="0.00" type="sedan" departSpeed="5.0">
        <route edges="688169646 688169645 688169644#0 688169644#1 688169644#2 688169643#0 688169643#1 688169643#2 688170737" />
    </vehicle>
    <vehicle id="93" depart="0.00" type="sedan" departSpeed="5.0">
        <route edges="688171462#0 688171462#1 688171462#2 688171462#3 672153002#0 672153002#1 672153002#2 672153002#3 672153002#4 672153002#5 672153002#6" />
    </vehicle>
    <vehicle id="94" depart="0.00" type="sedan" departSpeed="5.0">
        <route edges="50437161 688214482 688214484#0 688214484#1 687443515 672153002#0 687443514 687376010#0 687376010#1 687376010#2" />
    </vehicle>
    <vehicle id="101" depart="0.00" type="sedan" departSpeed="5.0">
        <route edges="688171462#0 688171462#1 688171462#2 688171462#3 672153002#0 672153002#1 672153002#2 672153002#3 672153002#4 672153002#5 672153002#6" />
    </vehicle>
    <vehicle id="105" depart="0.00" type="sedan" departSpeed="5.0">
        <route edges="50437161 688214482 688214484#0 688214484#1 688169643#0 688169643#1 688169643#2 688170737" />
    </vehicle>
    <vehicle id="109" depart="0.00" type="sedan" departSpeed="5.0">
        <route edges="412441780#0 412441780#1 412441780#2 672153002#1 672153002#2 672153002#3 672153002#4 672153002#5 672153002#6" />
    </vehicle>
    <vehicle id="112" depart="0.00" type="truck" departSpeed="5.0">
        <route edges="412441780#0 412441780#1 412441780#2 687443514 687376010#0 687376010#1 687376010#2 687376010#3 687376010#4" />
    </vehicle>
    <vehicle id="114" depart="0.00" type="sedan" departSpeed="5.0">
        <route edges="412441780#1 412441780#2 687443514 687376010#0 687376010#1 687376010#2 688199692" />
    </vehicle>
    <vehicle id="115" depart="0.00" type="bus" departSpeed="5.0">
        <route edges="412441780#0 412441780#1 412441780#2 672153002#1 672153002#2 672153002#3 672153002#4 672153002#5 672153002#6" />
    </vehicle>
    <vehicle id="116" depart="0.00" type="sedan" departSpeed="5.0">
        <route edges="688169644#0 688169644#1 688169644#2 688169643#0 688169643#1 688169643#2 688170737" />
    </vehicle>
    <vehicle id="117" depart="0.00" type="sedan" departSpeed="5.0">
        <route edges="50437161 688214482 688214484#0 688214484#1 687443515 672153002#0 672153002#1 672153002#2 672153002#3 672153002#4 672153002#5 672153002#6" />
    </vehicle>
    <vehicle id="118" depart="0.00" type="sedan" departSpeed="5.0">
        <route edges="688171462#0 688171462#1 688171462#2 688171462#3 672153002#0 672153002#1 672153002#2 672153002#3 672153002#4 672153002#5 672153002#6" />
    </vehicle>
    <vehicle id="120" depart="0.00" type="sedan" departSpeed="5.0">
        <route edges="687376010#4" />
    </vehicle>
    <vehicle id="122" depart="0.00" type="bus" departSpeed="5.0">
        <route edges="50437161 688214482 688214484#0 688214484#1 688169643#0 688169643#1 688169643#2 688170737" />
    </vehicle>
    <vehicle id="123" depart="0.00" type="sedan" departSpeed="5.0">
        <route edges="50437161 688214482 688214484#0 688214484#1 687443515 687375092#0 687375092#1" />
    </vehicle>
    <vehicle id="124" depart="0.00" type="sedan" departSpeed="5.0">
        <route edges="688169646 688169645 688169644#0 688169644#1 688169644#2 687443515 672153002#0 672153002#1 672153002#2 672153002#3 672153002#4 672153002#5 672153002#6" />
    </vehicle>
    <vehicle id="126" depart="0.00" type="sedan" departSpeed="5.0">
        <route edges="412441780#0 412441780#1 412441780#2 687443514 687376010#0 687376010#1 687376010#2 687376010#3" />
    </vehicle>
    <vehicle id="128" depart="0.00" type="sedan" departSpeed="5.0">
        <route edges="412441780#0 412441780#1 412441780#2 672153002#1 672153002#2 672153002#3 672153002#4 672153002#5 672153002#6" />
    </vehicle>
    <vehicle id="130" depart="0.00" type="sedan" departSpeed="5.0">
        <route edges="688171462#0 688171462#1 688171462#2 688171462#3 672153002#0 687443514 688169644#2 688169643#0 688169643#1 688169643#2 688170737" />
    </vehicle>
    <vehicle id="132" depart="0.00" type="sedan" departSpeed="5.0">
        <route edges="688171462#0 688171462#1 688171462#2 688171462#3 672153002#0 687443514 688169644#2 688169643#0 688169643#1 688169643#2 688170737" />
    </vehicle>
    <vehicle id="134" depart="0.00" type="sedan" departSpeed="5.0">
        <route edges="688169646 688169645 688169644#0 688169644#1 688169644#2 688169643#0 688169643#1 688169643#2 -688199688#1" />
    </vehicle>
    <vehicle id="135" depart="0.00" type="sedan" departSpeed="5.0">
        <route edges="688171462#0 688171462#1 688171462#2 688171462#3 672153002#0 672153002#1 672153002#2 672153002#3 672153002#4 672153002#5 672153002#6" />
    </vehicle>
    <vehicle id="136" depart="0.00" type="sedan" departSpeed="5.0">
        <route edges="688169646 688169645 688169644#0 688169644#1 687376010#0 687376010#1 687376010#2 688199692 688199690" />
    </vehicle>
    <vehicle id="137" depart="0.00" type="sedan" departSpeed="5.0">
        <route edges="412441780#0 412441780#1 412441780#2 672153002#1 672153002#2 672153002#3 672153002#4 672153002#5" />
    </vehicle>
    <vehicle id="138" depart="0.00" type="sedan" departSpeed="5.0">
        <route edges="412441780#0 412441780#1 412441780#2 687443514 687376010#0 687376010#1 687376010#2 687376010#3 687376010#4" />
    </vehicle>
    <vehicle id="139" depart="0.00" type="sedan" departSpeed="5.0">
        <route edges="50437161 688214482 688214484#0 688214484#1 688169643#0 688169643#1 688169643#2" />
    </vehicle>
    <vehicle id="140" depart="0.00" type="sedan" departSpeed="5.0">
        <route edges="688169646 688169645 688169644#0 688169644#1 688169644#2 687443515 672153002#0 672153002#1 672153002#2 672153002#3 672153002#4 672153002#5 672153002#6" />
    </vehicle>
    <vehicle id="141" depart="0.00" type="sedan" departSpeed="5.0">
        <route edges="688169646 688169645 688169644#0 688169644#1 688169644#2 687443515 672153002#0 672153002#1 672153002#2 672153002#3 672153002#4 672153002#5 672153002#6" />
    </vehicle>
    <vehicle id="143" depart="0.00" type="sedan" departSpeed="5.0">
        <route edges="688171462#0 688171462#1 688171462#2 688171462#3 672153002#0 672153002#1 672153002#2 672153002#3 672153002#4" />
    </vehicle>
    <vehicle id="146" depart="0.00" type="sedan" departSpeed="5.0">
        <route edges="688169646 688169645 688169644#0 688169644#1 688169644#2 687443515 672153002#0 672153002#1 672153002#2 672153002#3 672153002#4 672153002#5 672153002#6" />
    </vehicle>
    <vehicle id="147" depart="0.00" type="sedan" departSpeed="5.0">
        <route edges="688169646 688169645 688169644#0 688169644#1 687376010#0 687376010#1 687376010#2 687376010#3 687376010#4" />
    </vehicle>
    <vehicle id="149" depart="0.00" type="sedan" departSpeed="5.0">
        <route edges="412441780#0 412441780#1 412441780#2 687443514 688169644#2 688169643#0 688169643#1 688169643#2 688170737" />
    </vehicle>
    <vehicle id="150" depart="0.00" type="sedan" departSpeed="5.0">
        <route edges="688171462#0 688171462#1 688171462#2 688171462#3 672153002#0 687443514 687376010#0 687376010#1 687376010#2 687376010#3 687376010#4" />
    </vehicle>
    <vehicle id="151" depart="0.00" type="sedan" departSpeed="5.0">
        <route edges="688171462#0 688171462#1 688171462#2 688171462#3 672153002#0 687443514 687376010#0 687376010#1 687376010#2 687376010#3 687376010#4" />
    </vehicle>
    <vehicle id="152" depart="0.00" type="sedan" departSpeed="5.0">
        <route edges="412441780#0 412441780#1 412441780#2 672153002#1 672153002#2 672153002#3 672153002#4 672153002#5 672153002#6" />
    </vehicle>
    <vehicle id="154" depart="0.00" type="sedan" departSpeed="5.0">
        <route edges="688169646 688169645 688169644#0 688169644#1 688169644#2 688169643#0 688169643#1 688169643#2 688170737" />
    </vehicle>
    <vehicle id="155" depart="0.00" type="sedan" departSpeed="5.0">
        <route edges="688171462#0 688171462#1 688171462#2 688171462#3 672153002#0 672153002#1 672153002#2 672153002#3 672153002#4 672153002#5 672153002#6" />
    </vehicle>
    <vehicle id="156" depart="0.00" type="sedan" departSpeed="5.0">
        <route edges="50437161 688214482 688214484#0 688214484#1 687443515 672153002#0 672153002#1 672153002#2 672153002#3 672153002#4" />
    </vehicle>
    <vehicle id="157" depart="0.00" type="sedan" departSpeed="5.0">
        <route edges="688169646 688169645 688169644#0 688169644#1 688169644#2 688169643#0 688169643#1 688169643#2 688170737" />
    </vehicle>
    <vehicle id="161" depart="0.00" type="bus" departSpeed="5.0">
        <route edges="688171462#0 688171462#1 688171462#2 688171462#3 672153002#0 687443514 688169644#2 688169643#0 688169643#1 688169643#2 688170737" />
    </vehicle>
    <vehicle id="162" depart="0.00" type="bus" departSpeed="5.0">
        <route edges="412441780#0 412441780#1 412441780#2 687443514 688169644#2 688169643#0 688169643#1 688169643#2 688170737" />
    </vehicle>
    <vehicle id="164" depart="0.00" type="bus" departSpeed="5.0">
        <route edges="688169646 688169645 688169644#0 688169644#1 688169644#2 688169643#0 688169643#1 688169643#2 688170737" />
    </vehicle>
    <vehicle id="165" depart="0.00" type="sedan" departSpeed="5.0">
        <route edges="688171462#0 688171462#1 688171462#2 688171462#3 672153002#0 672153002#1 672153002#2 672153002#3 672153002#4 672153002#5 672153002#6" />
    </vehicle>
    <vehicle id="166" depart="0.00" type="sedan" departSpeed="5.0">
        <route edges="688169646 688169645 688169644#0 688169644#1 688169644#2 687443515 672153002#0 672153002#1 672153002#2 672153002#3 672153002#4 672153002#5" />
    </vehicle>
    <vehicle id="167" depart="0.00" type="sedan" departSpeed="5.0">
        <route edges="688171462#0 688171462#1 688171462#2 688171462#3 672153002#0 687443514 688169644#2 688169643#0 688169643#1 688169643#2 688170737" />
    </vehicle>
    <vehicle id="168" depart="0.00" type="sedan" departSpeed="5.0">
        <route edges="50437161 688214482 688214484#0 688214484#1 688169643#0 688169643#1 688169643#2 688170737" />
    </vehicle>
    <vehicle id="170" depart="0.00" type="sedan" departSpeed="5.0">
        <route edges="688169646 688169645 688169644#0 688169644#1 688169644#2 687443515 672153002#0 672153002#1 672153002#2 672153002#3 672153002#4 672153002#5 672153002#6" />
    </vehicle>
    <vehicle id="171" depart="0.00" type="sedan" departSpeed="5.0">
        <route edges="412441780#0 412441780#1 412441780#2 672153002#1 672153002#2 672153002#3 672153002#4 672153002#5 672153002#6" />
    </vehicle>
    <vehicle id="174" depart="0.00" type="sedan" departSpeed="5.0">
        <route edges="688169646 688169645 688169644#0 688169644#1 688169644#2 687443515 687375092#0 687375092#1" />
    </vehicle>
    <vehicle id="175" depart="0.00" type="sedan" departSpeed="5.0">
        <route edges="688199692 688199690 687376010#4" />
    </vehicle>
    <vehicle id="176" depart="0.00" type="bus" departSpeed="5.0">
        <route edges="688171462#0 688171462#1 688171462#2 688171462#3 672153002#0 672153002#1 672153002#2 672153002#3 672153002#4 672153002#5" />
    </vehicle>
    <vehicle id="178" depart="0.00" type="sedan" departSpeed="5.0">
        <route edges="688171462#2 688171462#3 672153002#0 672153002#1 672153002#2 672153002#3 672153002#4 672153002#5 672153002#6" />
    </vehicle>
    <vehicle id="179" depart="0.00" type="sedan" departSpeed="5.0">
        <route edges="412441780#0 412441780#1 412441780#2 687443514 687376010#0 687376010#1" />
    </vehicle>
    <vehicle id="180" depart="0.00" type="sedan" departSpeed="5.0">
        <route edges="688169646 688169645 688169644#0 688169644#1 688169644#2 687443515 672153002#0 672153002#1 672153002#2 672153002#3 672153002#4 672153002#5 672153002#6" />
    </vehicle>
    <vehicle id="182" depart="0.00" type="bus" departSpeed="5.0">
        <route edges="687376010#4" />
    </vehicle>
    <vehicle id="183" depart="0.00" type="sedan" departSpeed="5.0">
        <route edges="50437161 688214482 688214484#0 688214484#1 688169643#0 688169643#1 688169643#2 688170737" />
    </vehicle>
    <vehicle id="186" depart="0.00" type="sedan" departSpeed="5.0">
        <route edges="688169646 688169645 688169644#0 688169644#1 688169644#2 688169643#0 688169643#1 688169643#2 688170737" />
    </vehicle>
    <vehicle id="188" depart="0.00" type="sedan" departSpeed="5.0">
        <route edges="688169646 688169645 688169644#0 688169644#1 688169644#2 687443515 672153002#0 672153002#1 672153002#2 672153002#3 672153002#4 672153002#5 672153002#6" />
    </vehicle>
    <vehicle id="190" depart="0.00" type="sedan" departSpeed="5.0">
        <route edges="688169646 688169645 688169644#0 688169644#1 688169644#2 687443515 672153002#0 672153002#1 672153002#2 672153002#3 672153002#4 672153002#5 672153002#6" />
    </vehicle>
    <vehicle id="194" depart="0.00" type="motorcycle" departSpeed="5.0">
        <route edges="688171462#0 688171462#1 688171462#2 688171462#3 672153002#0 687443514 688169644#2 688169643#0 688169643#1 688169643#2 688170737" />
    </vehicle>
    <vehicle id="196" depart="0.00" type="sedan" departSpeed="5.0">
        <route edges="672153002#0 687443514 687376010#0 687376010#1 687376010#2 687376010#3 687376010#4" />
    </vehicle>
    <vehicle id="198" depart="0.00" type="truck" departSpeed="5.0">
        <route edges="687376010#4" />
    </vehicle>
    <vehicle id="199" depart="0.00" type="sedan" departSpeed="5.0">
        <route edges="688169646 688169645 688169644#0 688169644#1 687376010#0 687376010#1 687376010#2 687376010#3" />
    </vehicle>
    <vehicle id="202" depart="0.00" type="bus" departSpeed="5.0">
        <route edges="688169646 688169645 688169644#0 688169644#1 688169644#2 687443515 672153002#0 672153002#1 672153002#2 672153002#3 672153002#4 672153002#5 672153002#6" />
    </vehicle>
    <vehicle id="203" depart="0.00" type="sedan" departSpeed="5.0">
        <route edges="412441780#0 412441780#1 412441780#2 687443514 687376010#0 687376010#1 687376010#2 687376010#3 687376010#4" />
    </vehicle>
    <vehicle id="204" depart="0.00" type="sedan" departSpeed="5.0">
        <route edges="688169646 688169645 688169644#0 688169644#1 688169644#2 687443515 672153002#0 672153002#1 672153002#2 672153002#3 672153002#4 672153002#5 672153002#6" />
    </vehicle>
    <vehicle id="205" depart="0.00" type="sedan" departSpeed="5.0">
        <route edges="688171462#0 688171462#1 688171462#2 688171462#3 672153002#0 687443514 688169644#2 688169643#0 688169643#1 688169643#2 688170737" />
    </vehicle>
    <vehicle id="206" depart="0.00" type="sedan" departSpeed="5.0">
        <route edges="688169646 688169645 688169644#0 688169644#1 688169644#2 687443515 672153002#0 672153002#1 672153002#2 672153002#3 672153002#4 672153002#5 672153002#6" />
    </vehicle>
    <vehicle id="208" depart="0.00" type="sedan" departSpeed="5.0">
        <route edges="50437161 688214482 688214484#0 688214484#1 687443515 672153002#0 687443514 687376010#0 687376010#1 687376010#2 687376010#3 687376010#4" />
    </vehicle>
    <vehicle id="211" depart="0.00" type="sedan" departSpeed="5.0">
        <route edges="50437161 688214482 688214484#0 688214484#1 688169643#0 688169643#1 688169643#2 688170737" />
    </vehicle>
    <vehicle id="213" depart="0.00" type="sedan" departSpeed="5.0">
        <route edges="688169646 688169645 688169644#0 688169644#1 688169644#2 688169643#0 688169643#1 688169643#2 -688199688#1" />
    </vehicle>
    <vehicle id="214" depart="0.00" type="bus" departSpeed="5.0">
        <route edges="688169646 688169645 688169644#0 688169644#1 688169644#2 688169643#0 688169643#1 688169643#2 688170737" />
    </vehicle>
    <vehicle id="216" depart="0.00" type="sedan" departSpeed="5.0">
        <route edges="50437161 688214482 688214484#0 688214484#1 687443515 672153002#0 687443514 687376010#0 687376010#1 687376010#2 688199692" />
    </vehicle>
    <vehicle id="218" depart="0.00" type="sedan" departSpeed="5.0">
        <route edges="50437161 688214482 688214484#0 688214484#1 688169643#0 688169643#1 688169643#2 688170737" />
    </vehicle>
    <vehicle id="221" depart="0.00" type="sedan" departSpeed="5.0">
        <route edges="688169644#0 688169644#1 687376010#0 687376010#1 687376010#2 688199692" />
    </vehicle>
    <vehicle id="223" depart="0.00" type="sedan" departSpeed="5.0">
        <route edges="688169646 688169645 688169644#0 688169644#1 687376010#0 687376010#1 687376010#2 687376010#3 687376010#4" />
    </vehicle>
    <vehicle id="224" depart="0.00" type="motorcycle" departSpeed="5.0">
        <route edges="688171462#0 688171462#1 688171462#2 688171462#3 672153002#0 687443514 687376010#0 687376010#1 687376010#2 687376010#3 687376010#4" />
    </vehicle>
    <vehicle id="225" depart="0.00" type="sedan" departSpeed="5.0">
        <route edges="688171462#0 688171462#1 688171462#2 688171462#3 672153002#0 687443514 688169644#2 688169643#0 688169643#1 688169643#2 688170737" />
    </vehicle>
    <vehicle id="227" depart="0.00" type="sedan" departSpeed="5.0">
        <route edges="50437161 688214482 688214484#0 688214484#1 688169643#0 688169643#1 688169643#2 688170737" />
    </vehicle>