<?xml version="1.0" encoding="UTF-8"?>

<!-- generated on 2024-12-23 21:28:19 by Eclipse SUMO netedit Version 1.19.0
<configuration xmlns:xsi="http://www.w3.org/2001/XMLSchema-instance" xsi:noNamespaceSchemaLocation="http://sumo.dlr.de/xsd/neteditConfiguration.xsd">

    <input>
        <sumo-net-file value="city_network.net.xml"/>
    </input>

    <output>
        <output-file value="city_network.net.xml"/>
    </output>

    <processing>
        <geometry.min-radius.fix.railways value="false"/>
        <geometry.max-grade.fix value="false"/>
        <offset.disable-normalization value="true"/>
        <lefthand value="0"/>
    </processing>

    <junctions>
        <no-turnarounds value="true"/>
        <junctions.corner-detail value="5"/>
        <junctions.limit-turn-speed value="5.50"/>
        <rectangular-lane-cut value="0"/>
    </junctions>

    <pedestrian>
        <walkingareas value="0"/>
    </pedestrian>

</configuration>
-->

<net version="1.16" junctionCornerDetail="5" limitTurnSpeed="5.50" xmlns:xsi="http://www.w3.org/2001/XMLSchema-instance" xsi:noNamespaceSchemaLocation="http://sumo.dlr.de/xsd/net_file.xsd">

    <location netOffset="-769627.48,-3542815.69" convBoundary="311.77,425.45,873.93,684.49" origBoundary="35.853926,31.989209,35.863381,31.997636" projParameter="+proj=utm +zone=36 +ellps=WGS84 +datum=WGS84 +units=m +no_defs"/>

    <type id="highway.footway" priority="1" numLanes="1" speed="2.78" allow="pedestrian" oneway="1" width="2.00"/>
    <type id="highway.residential" priority="3" numLanes="1" speed="13.89" disallow="tram rail_urban rail rail_electric rail_fast ship" oneway="0"/>
    <type id="highway.secondary" priority="11" numLanes="1" speed="27.78" disallow="tram rail_urban rail rail_electric rail_fast ship" oneway="0"/>
    <type id="highway.secondary_link" priority="6" numLanes="1" speed="22.22" disallow="tram rail_urban rail rail_electric rail_fast ship" oneway="0"/>
    <type id="highway.service" priority="1" numLanes="1" speed="5.56" allow="pedestrian delivery bicycle" oneway="0"/>
    <type id="highway.tertiary" priority="10" numLanes="1" speed="22.22" disallow="tram rail_urban rail rail_electric rail_fast ship" oneway="0"/>

    <edge id=":1629060826_0" function="internal">
        <lane id=":1629060826_0_0" index="0" disallow="tram rail_urban rail rail_electric rail_fast ship" speed="27.78" length="0.30" shape="681.41,472.57 681.69,472.48"/>
        <lane id=":1629060826_0_1" index="1" disallow="tram rail_urban rail rail_electric rail_fast ship" speed="27.78" length="0.30" shape="682.38,475.62 682.66,475.52"/>
        <lane id=":1629060826_0_2" index="2" disallow="tram rail_urban rail rail_electric rail_fast ship" speed="27.78" length="0.30" shape="683.35,478.66 683.63,478.57"/>
    </edge>
    <edge id=":1629060831_0" function="internal">
        <lane id=":1629060831_0_0" index="0" disallow="tram rail_urban rail rail_electric rail_fast ship" speed="6.83" length="9.37" shape="442.49,560.29 444.03,562.42 445.84,563.63 447.94,563.92 450.31,563.30"/>
    </edge>
    <edge id=":1629060831_1" function="internal">
        <lane id=":1629060831_1_0" index="0" disallow="tram rail_urban rail rail_electric rail_fast ship" speed="3.65" length="4.67" shape="442.49,560.29 442.35,561.73 441.84,562.46 440.95,562.49 439.67,561.82"/>
    </edge>
    <edge id=":1629060831_2" function="internal">
        <lane id=":1629060831_2_0" index="0" disallow="tram rail_urban rail rail_electric rail_fast ship" speed="6.41" length="9.04" shape="437.28,569.28 439.34,567.89 440.43,566.18 440.54,564.15 439.67,561.82"/>
    </edge>
    <edge id=":1629060831_3" function="internal">
        <lane id=":1629060831_3_0" index="0" disallow="tram rail_urban rail rail_electric rail_fast ship" speed="27.78" length="14.20" shape="437.28,569.28 450.31,563.30"/>
        <lane id=":1629060831_3_1" index="1" disallow="tram rail_urban rail rail_electric rail_fast ship" speed="27.78" length="14.20" shape="438.67,572.16 451.57,566.24"/>
        <lane id=":1629060831_3_2" index="2" disallow="tram rail_urban rail rail_electric rail_fast ship" speed="27.78" length="14.20" shape="440.07,575.04 452.84,569.18"/>
    </edge>
    <edge id=":1629060840_0" function="internal">
        <lane id=":1629060840_0_0" index="0" disallow="tram rail_urban rail rail_electric rail_fast ship" speed="5.97" length="9.09" shape="401.73,615.36 400.97,612.87 399.63,611.46 397.72,611.16 395.23,611.94"/>
    </edge>
    <edge id=":1629060840_1" function="internal">
        <lane id=":1629060840_1_0" index="0" disallow="tram rail_urban rail rail_electric rail_fast ship" speed="3.64" length="4.62" shape="401.73,615.36 402.34,614.07 403.06,613.56 403.90,613.83 404.86,614.88"/>
    </edge>
    <edge id=":1629060840_2" function="internal">
        <lane id=":1629060840_2_0" index="0" disallow="tram rail_urban rail rail_electric rail_fast ship" speed="7.98" length="10.76" shape="408.41,605.52 406.45,606.97 405.21,609.01 404.68,611.65 404.86,614.88"/>
    </edge>
    <edge id=":1629060840_3" function="internal">
        <lane id=":1629060840_3_0" index="0" disallow="tram rail_urban rail rail_electric rail_fast ship" speed="27.78" length="14.61" shape="408.41,605.52 395.23,611.94"/>
        <lane id=":1629060840_3_1" index="1" disallow="tram rail_urban rail rail_electric rail_fast ship" speed="27.78" length="14.61" shape="406.98,602.65 393.85,609.06"/>
        <lane id=":1629060840_3_2" index="2" disallow="tram rail_urban rail rail_electric rail_fast ship" speed="27.78" length="14.61" shape="405.55,599.79 392.46,606.18"/>
    </edge>
    <edge id=":641299101_0" function="internal">
        <lane id=":641299101_0_0" index="0" disallow="tram rail_urban rail rail_electric rail_fast ship" speed="7.17" length="7.97" shape="585.25,590.52 586.06,592.15 587.38,593.37 589.20,594.19 591.52,594.60"/>
    </edge>
    <edge id=":641299101_1" function="internal">
        <lane id=":641299101_1_0" index="0" disallow="tram rail_urban rail rail_electric rail_fast ship" speed="22.22" length="9.20" shape="585.25,590.52 587.82,599.38"/>
        <lane id=":641299101_1_1" index="1" disallow="tram rail_urban rail rail_electric rail_fast ship" speed="22.22" length="9.20" shape="582.19,591.45 584.74,600.25"/>
    </edge>
    <edge id=":641310076_0" function="internal">
        <lane id=":641310076_0_0" index="0" disallow="tram rail_urban rail rail_electric rail_fast ship" speed="25.00" length="14.58" shape="600.95,526.34 596.76,528.18 593.91,530.15 591.63,532.29 589.17,534.66"/>
    </edge>
    <edge id=":641310076_1" function="internal">
        <lane id=":641310076_1_0" index="0" disallow="tram rail_urban rail rail_electric rail_fast ship" speed="27.78" length="14.58" shape="600.95,526.34 586.79,530.48"/>
        <lane id=":641310076_1_1" index="1" disallow="tram rail_urban rail rail_electric rail_fast ship" speed="27.78" length="14.58" shape="599.89,523.32 585.84,527.42"/>
        <lane id=":641310076_1_2" index="2" disallow="tram rail_urban rail rail_electric rail_fast ship" speed="27.78" length="14.58" shape="598.84,520.30 584.90,524.37"/>
        <lane id=":641310076_1_3" index="3" disallow="tram rail_urban rail rail_electric rail_fast ship" speed="27.78" length="14.58" shape="597.79,517.28 583.95,521.31"/>
    </edge>
    <edge id=":641310081_0" function="internal">
        <lane id=":641310081_0_0" index="0" disallow="tram rail_urban rail rail_electric rail_fast ship" speed="9.51" length="8.25" shape="576.07,551.42 575.16,553.63 574.67,555.69 574.62,557.61 574.99,559.39"/>
    </edge>
    <edge id=":641310081_1" function="internal">
        <lane id=":641310081_1_0" index="0" disallow="tram rail_urban rail rail_electric rail_fast ship" speed="22.22" length="8.30" shape="572.10,551.57 574.99,559.39"/>
        <lane id=":641310081_1_1" index="1" disallow="tram rail_urban rail rail_electric rail_fast ship" speed="22.22" length="8.30" shape="569.09,552.67 571.96,560.43"/>
    </edge>
    <edge id=":641310088_0" function="internal">
        <lane id=":641310088_0_0" index="0" disallow="tram rail_urban rail rail_electric rail_fast ship" speed="11.35" length="8.62" shape="559.97,561.74 559.01,559.49 557.83,558.22 556.25,557.25 554.08,555.85"/>
    </edge>
    <edge id=":641310088_1" function="internal">
        <lane id=":641310088_1_0" index="0" disallow="tram rail_urban rail rail_electric rail_fast ship" speed="22.22" length="8.60" shape="559.97,561.74 557.36,553.57"/>
        <lane id=":641310088_1_1" index="1" disallow="tram rail_urban rail rail_electric rail_fast ship" speed="22.22" length="8.60" shape="563.03,560.79 560.42,552.60"/>
        <lane id=":641310088_1_2" index="2" disallow="tram rail_urban rail rail_electric rail_fast ship" speed="22.22" length="8.60" shape="566.09,559.85 563.47,551.64"/>
    </edge>
    <edge id=":641310093_0" function="internal">
        <lane id=":641310093_0_0" index="0" disallow="tram rail_urban rail rail_electric rail_fast ship" speed="16.22" length="15.35" shape="542.54,550.42 539.09,549.69 535.77,549.14 532.09,549.32 527.54,550.77"/>
    </edge>
    <edge id=":641310093_1" function="internal">
        <lane id=":641310093_1_0" index="0" disallow="tram rail_urban rail rail_electric rail_fast ship" speed="27.78" length="14.73" shape="541.15,545.46 527.54,550.77"/>
        <lane id=":641310093_1_1" index="1" disallow="tram rail_urban rail rail_electric rail_fast ship" speed="27.78" length="14.73" shape="539.97,542.48 526.25,547.84"/>
        <lane id=":641310093_1_2" index="2" disallow="tram rail_urban rail rail_electric rail_fast ship" speed="27.78" length="14.73" shape="538.80,539.51 524.97,544.91"/>
    </edge>
    <edge id=":641310144_0" function="internal">
        <lane id=":641310144_0_0" index="0" disallow="tram rail_urban rail rail_electric rail_fast ship" speed="22.22" length="0.45" shape="572.11,604.31 572.05,604.02"/>
        <lane id=":641310144_0_1" index="1" disallow="tram rail_urban rail rail_electric rail_fast ship" speed="22.22" length="0.45" shape="575.25,603.69 575.16,603.25"/>
        <lane id=":641310144_0_2" index="2" disallow="tram rail_urban rail rail_electric rail_fast ship" speed="22.22" length="0.45" shape="578.39,603.07 578.26,602.49"/>
    </edge>
    <edge id=":6443160436_0" function="internal">
        <lane id=":6443160436_0_0" index="0" disallow="tram rail_urban rail rail_electric rail_fast ship" speed="22.22" length="3.04" shape="568.10,540.72 569.15,543.57"/>
        <lane id=":6443160436_0_1" index="1" disallow="tram rail_urban rail rail_electric rail_fast ship" speed="22.22" length="3.04" shape="565.10,541.82 566.15,544.68"/>
    </edge>
    <edge id=":6443160437_0" function="internal">
        <lane id=":6443160437_0_0" index="0" disallow="tram rail_urban rail rail_electric rail_fast ship" speed="22.22" length="2.75" shape="555.66,548.18 554.86,545.76"/>
        <lane id=":6443160437_0_1" index="1" disallow="tram rail_urban rail rail_electric rail_fast ship" speed="22.22" length="2.75" shape="558.71,547.21 557.84,544.60"/>
        <lane id=":6443160437_0_2" index="2" disallow="tram rail_urban rail rail_electric rail_fast ship" speed="22.22" length="2.75" shape="561.76,546.25 560.83,543.45"/>
    </edge>
    <edge id=":6443160438_0" function="internal">
        <lane id=":6443160438_0_0" index="0" disallow="tram rail_urban rail rail_electric rail_fast ship" speed="27.78" length="4.29" shape="545.35,543.76 541.34,545.39"/>
        <lane id=":6443160438_0_1" index="1" disallow="tram rail_urban rail rail_electric rail_fast ship" speed="27.78" length="4.29" shape="544.14,540.80 540.16,542.41"/>
        <lane id=":6443160438_0_2" index="2" disallow="tram rail_urban rail rail_electric rail_fast ship" speed="27.78" length="4.29" shape="542.92,537.84 538.99,539.43"/>
    </edge>
    <edge id=":6443160439_0" function="internal">
        <lane id=":6443160439_0_0" index="0" disallow="tram rail_urban rail rail_electric rail_fast ship" speed="27.78" length="4.51" shape="563.94,514.19 568.09,512.60"/>
        <lane id=":6443160439_0_1" index="1" disallow="tram rail_urban rail rail_electric rail_fast ship" speed="27.78" length="4.51" shape="565.05,517.19 569.26,515.57"/>
        <lane id=":6443160439_0_2" index="2" disallow="tram rail_urban rail rail_electric rail_fast ship" speed="27.78" length="4.51" shape="566.16,520.19 570.44,518.55"/>
    </edge>
    <edge id=":6443160441_0" function="internal">
        <lane id=":6443160441_0_0" index="0" disallow="tram rail_urban rail rail_electric rail_fast ship" speed="27.78" length="4.24" shape="575.56,533.96 571.81,535.24"/>
        <lane id=":6443160441_0_1" index="1" disallow="tram rail_urban rail rail_electric rail_fast ship" speed="27.78" length="4.24" shape="574.61,530.90 570.69,532.24"/>
        <lane id=":6443160441_0_2" index="2" disallow="tram rail_urban rail rail_electric rail_fast ship" speed="27.78" length="4.24" shape="573.67,527.84 569.57,529.24"/>
        <lane id=":6443160441_0_3" index="3" disallow="tram rail_urban rail rail_electric rail_fast ship" speed="27.78" length="4.24" shape="572.72,524.79 568.45,526.24"/>
    </edge>
    <edge id=":6443169740_0" function="internal">
        <lane id=":6443169740_0_0" index="0" disallow="tram rail_urban rail rail_electric rail_fast ship" speed="5.88" length="7.16" shape="571.62,535.31 569.58,536.31 568.30,537.52 567.78,538.92 568.03,540.53"/>
    </edge>
    <edge id=":6443169740_1" function="internal">
        <lane id=":6443169740_1_0" index="0" disallow="tram rail_urban rail rail_electric rail_fast ship" speed="27.78" length="10.50" shape="571.62,535.31 561.77,538.97"/>
        <lane id=":6443169740_1_1" index="1" disallow="tram rail_urban rail rail_electric rail_fast ship" speed="27.78" length="10.50" shape="570.50,532.31 560.66,535.97"/>
        <lane id=":6443169740_1_2" index="2" disallow="tram rail_urban rail rail_electric rail_fast ship" speed="27.78" length="10.50" shape="569.38,529.31 559.55,532.97"/>
        <lane id=":6443169740_1_3" index="3" disallow="tram rail_urban rail rail_electric rail_fast ship" speed="27.78" length="10.50" shape="568.27,526.31 558.44,529.97"/>
    </edge>
    <edge id=":6443169740_5" function="internal">
        <lane id=":6443169740_5_0" index="0" disallow="tram rail_urban rail rail_electric rail_fast ship" speed="22.22" length="16.31" shape="562.27,525.24 568.03,540.53"/>
        <lane id=":6443169740_5_1" index="1" disallow="tram rail_urban rail rail_electric rail_fast ship" speed="22.22" length="16.31" shape="559.29,526.39 565.03,541.63"/>
    </edge>
    <edge id=":6443169740_7" function="internal">
        <lane id=":6443169740_7_0" index="0" disallow="tram rail_urban rail rail_electric rail_fast ship" speed="5.81" length="7.07" shape="559.29,526.39 560.15,528.99 560.48,530.96 560.28,532.28 559.55,532.97"/>
        <lane id=":6443169740_7_1" index="1" disallow="tram rail_urban rail rail_electric rail_fast ship" speed="4.65" length="4.15" shape="559.29,526.39 559.65,527.69 559.63,528.71 559.22,529.47 558.44,529.97"/>
    </edge>
    <edge id=":6443169741_0" function="internal">
        <lane id=":6443169741_0_0" index="0" disallow="tram rail_urban rail rail_electric rail_fast ship" speed="6.37" length="8.74" shape="554.79,545.57 553.63,543.56 552.06,542.43 550.07,542.18 547.68,542.81"/>
        <lane id=":6443169741_0_1" index="1" disallow="tram rail_urban rail rail_electric rail_fast ship" speed="7.89" length="13.97" shape="557.77,544.42 555.91,541.15 553.40,539.30 550.25,538.87 546.46,539.85"/>
    </edge>
    <edge id=":6443169741_2" function="internal">
        <lane id=":6443169741_2_0" index="0" disallow="tram rail_urban rail rail_electric rail_fast ship" speed="22.22" length="16.83" shape="560.75,543.26 558.00,538.93 554.83,536.73 551.76,534.50 549.29,530.07"/>
        <lane id=":6443169741_2_1" index="1" disallow="tram rail_urban rail rail_electric rail_fast ship" speed="22.22" length="16.83" shape="560.75,543.26 558.54,538.91 556.37,536.24 554.29,533.54 552.34,529.10"/>
        <lane id=":6443169741_2_2" index="2" disallow="tram rail_urban rail rail_electric rail_fast ship" speed="22.22" length="16.83" shape="560.75,543.26 555.39,528.13"/>
    </edge>
    <edge id=":6443169741_5" function="internal">
        <lane id=":6443169741_5_0" index="0" disallow="tram rail_urban rail rail_electric rail_fast ship" speed="27.78" length="14.55" shape="561.58,539.04 557.49,540.30 554.59,540.84 551.71,541.42 547.68,542.81"/>
        <lane id=":6443169741_5_1" index="1" disallow="tram rail_urban rail rail_electric rail_fast ship" speed="27.78" length="14.55" shape="560.47,536.04 556.35,537.31 553.43,537.85 550.53,538.44 546.46,539.85"/>
        <lane id=":6443169741_5_2" index="2" disallow="tram rail_urban rail rail_electric rail_fast ship" speed="27.78" length="14.55" shape="559.36,533.04 555.21,534.32 552.27,534.87 549.34,535.47 545.24,536.89"/>
    </edge>
    <edge id=":6443169741_8" function="internal">
        <lane id=":6443169741_8_0" index="0" disallow="tram rail_urban rail rail_electric rail_fast ship" speed="5.63" length="6.71" shape="558.25,530.04 556.00,530.67 554.27,530.73 553.05,530.20 552.34,529.10"/>
        <lane id=":6443169741_8_1" index="1" disallow="tram rail_urban rail rail_electric rail_fast ship" speed="4.52" length="3.94" shape="558.25,530.04 557.32,530.20 556.53,529.93 555.89,529.24 555.39,528.13"/>
    </edge>
    <edge id=":6443169744_0" function="internal">
        <lane id=":6443169744_0_0" index="0" disallow="tram rail_urban rail rail_electric rail_fast ship" speed="22.22" length="14.88" shape="543.77,507.14 539.50,492.87"/>
        <lane id=":6443169744_0_1" index="1" disallow="tram rail_urban rail rail_electric rail_fast ship" speed="22.22" length="14.88" shape="546.83,506.20 542.57,491.96"/>
    </edge>
    <edge id=":6443169744_2" function="internal">
        <lane id=":6443169744_2_0" index="0" disallow="tram rail_urban rail rail_electric rail_fast ship" speed="16.23" length="14.81" shape="538.43,507.33 539.49,504.02 540.27,500.91 540.40,497.38 539.50,492.87"/>
    </edge>
    <edge id=":6443169745_0" function="internal">
        <lane id=":6443169745_0_0" index="0" disallow="tram rail_urban rail rail_electric rail_fast ship" speed="17.09" length="14.44" shape="521.26,531.74 525.14,529.52 527.61,527.18 529.41,524.63 531.27,521.74"/>
    </edge>
    <edge id=":6443169745_1" function="internal">
        <lane id=":6443169745_1_0" index="0" disallow="tram rail_urban rail rail_electric rail_fast ship" speed="27.78" length="13.36" shape="521.26,531.74 533.53,526.37"/>
        <lane id=":6443169745_1_1" index="1" disallow="tram rail_urban rail rail_electric rail_fast ship" speed="27.78" length="13.36" shape="522.58,534.65 534.82,529.30"/>
        <lane id=":6443169745_1_2" index="2" disallow="tram rail_urban rail rail_electric rail_fast ship" speed="27.78" length="13.36" shape="523.91,537.56 536.11,532.23"/>
    </edge>
    <edge id=":6443180349_0" function="internal">
        <lane id=":6443180349_0_0" index="0" disallow="tram rail_urban rail rail_electric rail_fast ship" speed="21.66" length="14.28" shape="570.31,506.28 573.66,506.70 576.70,506.92 580.07,506.62 584.40,505.48"/>
    </edge>
    <edge id=":6443180349_1" function="internal">
        <lane id=":6443180349_1_0" index="0" disallow="tram rail_urban rail rail_electric rail_fast ship" speed="27.78" length="14.11" shape="571.35,511.31 584.40,505.48"/>
        <lane id=":6443180349_1_1" index="1" disallow="tram rail_urban rail rail_electric rail_fast ship" speed="27.78" length="14.11" shape="572.52,514.29 585.40,508.52"/>
        <lane id=":6443180349_1_2" index="2" disallow="tram rail_urban rail rail_electric rail_fast ship" speed="27.78" length="14.11" shape="573.70,517.26 586.40,511.56"/>
    </edge>
    <edge id=":6443180355_0" function="internal">
        <lane id=":6443180355_0_0" index="0" disallow="tram rail_urban rail rail_electric rail_fast ship" speed="16.91" length="15.05" shape="549.61,489.68 551.43,493.98 553.63,496.81 556.13,498.95 558.87,501.14"/>
    </edge>
    <edge id=":6443180355_1" function="internal">
        <lane id=":6443180355_1_0" index="0" disallow="tram rail_urban rail rail_electric rail_fast ship" speed="22.22" length="15.21" shape="549.61,489.68 554.58,503.97"/>
        <lane id=":6443180355_1_1" index="1" disallow="tram rail_urban rail rail_electric rail_fast ship" speed="22.22" length="15.21" shape="546.55,490.61 551.56,505.04"/>
    </edge>
    <edge id=":6443193476_0" function="internal">
        <lane id=":6443193476_0_0" index="0" disallow="tram rail_urban rail rail_electric rail_fast ship" speed="22.22" length="4.61" shape="555.50,506.60 557.03,510.95"/>
        <lane id=":6443193476_0_1" index="1" disallow="tram rail_urban rail rail_electric rail_fast ship" speed="22.22" length="4.61" shape="552.48,507.66 554.02,512.01"/>
    </edge>
    <edge id=":6443964047_0" function="internal">
        <lane id=":6443964047_0_0" index="0" disallow="tram rail_urban rail rail_electric rail_fast ship" speed="22.22" length="15.48" shape="549.23,529.88 548.12,525.57 547.70,522.53 547.27,519.49 546.08,515.20"/>
        <lane id=":6443964047_0_1" index="1" disallow="tram rail_urban rail rail_electric rail_fast ship" speed="22.22" length="15.48" shape="549.23,529.88 548.56,525.32 549.22,522.01 549.86,518.72 549.11,514.18"/>
    </edge>
    <edge id=":6443964047_2" function="internal">
        <lane id=":6443964047_2_0" index="0" disallow="tram rail_urban rail rail_electric rail_fast ship" speed="6.70" length="8.86" shape="552.28,528.91 551.74,526.27 551.96,524.13 552.94,522.47 554.66,521.30"/>
        <lane id=":6443964047_2_1" index="1" disallow="tram rail_urban rail rail_electric rail_fast ship" speed="4.82" length="4.11" shape="555.33,527.94 555.01,526.57 555.01,525.50 555.32,524.72 555.95,524.23"/>
    </edge>
    <edge id=":6443964047_4" function="internal">
        <lane id=":6443964047_4_0" index="0" disallow="tram rail_urban rail rail_electric rail_fast ship" speed="7.19" length="10.86" shape="540.97,523.40 543.90,521.87 545.73,520.00 546.46,517.77 546.08,515.20"/>
    </edge>
    <edge id=":6443964047_5" function="internal">
        <lane id=":6443964047_5_0" index="0" disallow="tram rail_urban rail rail_electric rail_fast ship" speed="27.78" length="13.53" shape="540.97,523.40 553.38,518.37"/>
        <lane id=":6443964047_5_1" index="1" disallow="tram rail_urban rail rail_electric rail_fast ship" speed="27.78" length="13.53" shape="542.12,526.38 554.66,521.30"/>
        <lane id=":6443964047_5_2" index="2" disallow="tram rail_urban rail rail_electric rail_fast ship" speed="27.78" length="13.53" shape="543.28,529.37 555.95,524.23"/>
    </edge>
    <edge id=":6443964048_0" function="internal">
        <lane id=":6443964048_0_0" index="0" disallow="tram rail_urban rail rail_electric rail_fast ship" speed="6.27" length="8.41" shape="557.10,511.14 558.17,513.19 559.63,514.39 561.49,514.75 563.75,514.26"/>
        <lane id=":6443964048_0_1" index="1" disallow="tram rail_urban rail rail_electric rail_fast ship" speed="7.81" length="13.63" shape="554.08,512.20 555.81,515.52 558.19,517.47 561.20,518.05 564.86,517.26"/>
    </edge>
    <edge id=":6443964048_2" function="internal">
        <lane id=":6443964048_2_0" index="0" disallow="tram rail_urban rail rail_electric rail_fast ship" speed="22.22" length="15.11" shape="554.08,512.20 556.03,516.24 558.06,518.66 560.13,521.06 562.20,525.06"/>
        <lane id=":6443964048_2_1" index="1" disallow="tram rail_urban rail rail_electric rail_fast ship" speed="22.22" length="15.11" shape="554.08,512.20 559.21,526.21"/>
    </edge>
    <edge id=":6443964048_4" function="internal">
        <lane id=":6443964048_4_0" index="0" disallow="tram rail_urban rail rail_electric rail_fast ship" speed="27.78" length="10.77" shape="553.56,518.29 563.75,514.26"/>
        <lane id=":6443964048_4_1" index="1" disallow="tram rail_urban rail rail_electric rail_fast ship" speed="27.78" length="10.77" shape="554.85,521.22 564.86,517.26"/>
        <lane id=":6443964048_4_2" index="2" disallow="tram rail_urban rail rail_electric rail_fast ship" speed="27.78" length="10.77" shape="556.13,524.15 565.98,520.26"/>
    </edge>
    <edge id=":6443964048_7" function="internal">
        <lane id=":6443964048_7_0" index="0" disallow="tram rail_urban rail rail_electric rail_fast ship" speed="4.64" length="4.22" shape="556.13,524.15 557.06,523.96 557.88,524.24 558.60,524.99 559.21,526.21"/>
    </edge>
    <edge id=":6452224208_0" function="internal">
        <lane id=":6452224208_0_0" index="0" disallow="tram rail_urban rail rail_electric rail_fast ship" speed="27.78" length="0.30" shape="652.53,508.39 652.22,508.50"/>
        <lane id=":6452224208_0_1" index="1" disallow="tram rail_urban rail rail_electric rail_fast ship" speed="27.78" length="0.30" shape="651.46,505.38 651.17,505.48"/>
        <lane id=":6452224208_0_2" index="2" disallow="tram rail_urban rail rail_electric rail_fast ship" speed="27.78" length="0.30" shape="650.38,502.36 650.11,502.46"/>
        <lane id=":6452224208_0_3" index="3" disallow="tram rail_urban rail rail_electric rail_fast ship" speed="27.78" length="0.30" shape="649.31,499.35 649.06,499.44"/>
    </edge>
    <edge id=":6452607128_0" function="internal">
        <lane id=":6452607128_0_0" index="0" disallow="tram rail_urban rail rail_electric rail_fast ship" speed="9.26" length="7.92" shape="595.25,613.10 593.80,614.93 592.80,616.71 592.24,618.46 592.12,620.16"/>
    </edge>
    <edge id=":6452607128_1" function="internal">
        <lane id=":6452607128_1_0" index="0" disallow="tram rail_urban rail rail_electric rail_fast ship" speed="22.22" length="8.27" shape="591.12,611.83 592.12,620.16"/>
        <lane id=":6452607128_1_1" index="1" disallow="tram rail_urban rail rail_electric rail_fast ship" speed="22.22" length="8.27" shape="587.94,612.26 588.93,620.36"/>
    </edge>
    <edge id=":6452607135_0" function="internal">
        <lane id=":6452607135_0_0" index="0" disallow="tram rail_urban rail rail_electric rail_fast ship" speed="4.03" length="4.27" shape="606.82,595.35 608.13,595.57 608.75,596.08 608.69,596.89 607.96,597.99"/>
    </edge>
    <edge id=":6452665454_0" function="internal">
        <lane id=":6452665454_0_0" index="0" allow="pedestrian delivery bicycle" speed="5.08" length="5.00" shape="666.81,473.97 667.43,475.19 668.30,475.93 669.40,476.19 670.74,475.96"/>
    </edge>
    <edge id=":6452665454_1" function="internal">
        <lane id=":6452665454_1_0" index="0" allow="pedestrian delivery bicycle" speed="3.65" length="4.67" shape="666.81,473.97 666.44,475.37 665.82,476.01 664.93,475.89 663.78,475.02"/>
    </edge>
    <edge id=":6452665454_2" function="internal">
        <lane id=":6452665454_2_0" index="0" allow="pedestrian delivery bicycle" speed="5.06" length="4.98" shape="661.91,478.98 663.11,478.34 663.82,477.47 664.05,476.36 663.78,475.02"/>
    </edge>
    <edge id=":6452665454_3" function="internal">
        <lane id=":6452665454_3_0" index="0" disallow="tram rail_urban rail rail_electric rail_fast ship" speed="27.78" length="9.20" shape="661.91,478.98 670.74,475.96"/>
        <lane id=":6452665454_3_1" index="1" disallow="tram rail_urban rail rail_electric rail_fast ship" speed="27.78" length="9.20" shape="663.01,481.99 671.71,479.01"/>
        <lane id=":6452665454_3_2" index="2" disallow="tram rail_urban rail rail_electric rail_fast ship" speed="27.78" length="9.20" shape="664.10,484.99 672.68,482.06"/>
    </edge>
    <edge id=":6452665456_0" function="internal">
        <lane id=":6452665456_0_0" index="0" allow="pedestrian delivery bicycle" speed="5.56" length="0.75" shape="654.18,464.96 653.97,464.91 653.82,464.90 653.66,464.91 653.45,464.96"/>
    </edge>
    <edge id=":6452665456_1" function="internal">
        <lane id=":6452665456_1_0" index="0" allow="pedestrian delivery bicycle" speed="5.56" length="2.24" shape="652.69,461.86 653.33,461.71 653.79,461.66 654.24,461.70 654.89,461.84"/>
    </edge>
    <edge id=":6452665457_0" function="internal">
        <lane id=":6452665457_0_0" index="0" allow="pedestrian delivery bicycle" speed="5.56" length="0.70" shape="642.55,467.64 642.35,467.69 642.22,467.74 642.10,467.81 641.94,467.94"/>
    </edge>
    <edge id=":6452665457_1" function="internal">
        <lane id=":6452665457_1_0" index="0" allow="pedestrian delivery bicycle" speed="5.56" length="2.09" shape="639.94,465.44 640.43,465.06 640.79,464.83 641.19,464.68 641.79,464.53"/>
    </edge>
    <edge id=":6452665459_0" function="internal">
        <lane id=":6452665459_0_0" index="0" allow="pedestrian delivery bicycle" speed="4.75" length="5.49" shape="638.95,483.59 639.18,485.16 639.84,486.10 640.95,486.41 642.51,486.08"/>
    </edge>
    <edge id=":6452665459_1" function="internal">
        <lane id=":6452665459_1_0" index="0" allow="pedestrian delivery bicycle" speed="3.65" length="4.67" shape="638.95,483.59 638.15,484.79 637.35,485.19 636.55,484.79 635.75,483.59"/>
    </edge>
    <edge id=":6452665459_2" function="internal">
        <lane id=":6452665459_2_0" index="0" allow="pedestrian delivery bicycle" speed="6.45" length="6.70" shape="633.23,489.36 634.33,488.69 635.12,487.50 635.59,485.80 635.75,483.59"/>
    </edge>
    <edge id=":6452665459_3" function="internal">
        <lane id=":6452665459_3_0" index="0" disallow="tram rail_urban rail rail_electric rail_fast ship" speed="27.78" length="9.95" shape="633.23,489.36 642.51,486.08"/>