<additional xmlns:xsi="http://www.w3.org/2001/XMLSchema-instance" xsi:noNamespaceSchemaLocation="http://sumo.dlr.de/xsd/additional_file.xsd">
    <laneAreaDetector file="e2output.xml" freq="60" friendlyPos="x" id="e2det_412441780#1_0" lane="412441780#1_0" length="2.6799999999999997" pos="8.326672684688674e-17"/>
    <laneAreaDetector file="e2output.xml" freq="60" friendlyPos="x" id="e2det_412441780#1_1" lane="412441780#1_1" length="2.6799999999999997" pos="8.326672684688674e-17"/>
    <laneAreaDetector file="e2output.xml" freq="60" friendlyPos="x" id="e2det_688169644#0_0" lane="688169644#0_0" length="11.66" pos="0"/>
    <laneAreaDetector file="e2output.xml" freq="60" friendlyPos="x" id="e2det_688169644#0_1" lane="688169644#0_1" length="11.66" pos="0"/>
    <laneAreaDetector file="e2output.xml" freq="60" friendlyPos="x" id="e2det_688169644#0_2" lane="688169644#0_2" length="11.66" pos="0"/>
    <laneAreaDetector file="e2output.xml" freq="60" friendlyPos="x" id="e2det_688169644#0_3" lane="688169644#0_3" length="11.66" pos="0"/>
    <laneAreaDetector file="e2output.xml" freq="60" friendlyPos="x" id="e2det_688171462#2_0" lane="688171462#2_0" length="0.1" pos="0"/>
    <laneAreaDetector file="e2output.xml" freq="60" friendlyPos="x" id="e2det_688171462#2_1" lane="688171462#2_1" length="0.1" pos="0"/>
    <laneAreaDetector file="e2output.xml" freq="60" friendlyPos="x" id="e2det_688171462#2_2" lane="688171462#2_2" length="0.1" pos="0"/>
    <laneAreaDetector file="e2output.xml" freq="60" friendlyPos="x" id="e2det_688214484#0_0" lane="688214484#0_0" length="5.5600000000000005" pos="0"/>
    <laneAreaDetector file="e2output.xml" freq="60" friendlyPos="x" id="e2det_688214484#0_1" lane="688214484#0_1" length="5.5600000000000005" pos="0"/>
    <laneAreaDetector file="e2output.xml" freq="60" friendlyPos="x" id="e2det_688214484#0_2" lane="688214484#0_2" length="5.5600000000000005" pos="0"/>
</additional>
