<?xml version="1.0" encoding="UTF-8"?>

<!-- generated on 2024-11-08 15:13:32.563522 by randomTrips.py v1_19_0+0000-baa66a0f364
<configuration>
    <net-file value="city_network.net.xml"/>
    <route-file value="pedestrian_trips.rou.xml"/>
    <pedestrians value="True"/>
    <trip-attributes value="departPos='random'"/>
    <allow-fringe value="True"/>
    <verbose value="True"/>
    <end value="68400.0"/>
    <period value="10.0"/>
</configuration>
-->

<!-- generated on 2024-11-08 15:13:32 by Eclipse SUMO duarouter Version 1.19.0
<configuration xmlns:xsi="http://www.w3.org/2001/XMLSchema-instance" xsi:noNamespaceSchemaLocation="http://sumo.dlr.de/xsd/duarouterConfiguration.xsd">

    <input>
        <net-file value="city_network.net.xml"/>
        <route-files value="trips.trips.xml"/>
    </input>

    <output>
        <output-file value="pedestrian_trips.rou.xml"/>
        <alternatives-output value="NUL"/>
    </output>

    <time>
        <begin value="0.0"/>
        <end value="68400.0"/>
    </time>

    <report>
        <verbose value="true"/>
        <ignore-errors value="true"/>
        <no-step-log value="true"/>
    </report>

</configuration>
-->

<routes xmlns:xsi="http://www.w3.org/2001/XMLSchema-instance" xsi:noNamespaceSchemaLocation="http://sumo.dlr.de/xsd/routes_file.xsd">
    <person id="0" depart="0.00" departPos="random">
        <walk edges="688162251 -688199688#1 688169643#2 688169643#1 688182531 688171462#2 688171462#1 -154286264 674382481#1 674382481#0 -154286270"/>
    </person>
    <person id="1" depart="10.00" departPos="random">
        <walk edges="50437158 688214484#0 688182528 687376010#0 688169644#1 688182530 672153002#1 412441780#2 412441780#1 412441780#0"/>
    </person>
    <person id="2" depart="20.00" departPos="random">
        <walk edges="688169646 688169645 688169644#0 688169644#1 688169644#2 688169643#0 688169643#1 688169643#2"/>
    </person>
    <person id="3" depart="30.00" departPos="random">
        <walk edges="688199688#1 -688199688#1 688169643#2 688169643#1 688182531 688171462#2 688171462#1 -154286264 674382481#1 -687224337"/>
    </person>
    <person id="4" depart="40.00" departPos="random">
        <walk edges="674382481#2 -154286264 688171462#1 688171462#2 688182531 688169643#0 688214484#1 688182528 687376010#1 687376010#2 688199692 -406699916#0"/>
    </person>
    <person id="5" depart="50.00" departPos="random">
        <walk edges="412441780#0 687376009"/>
    </person>
    <person id="6" depart="60.00" departPos="random">
        <walk edges="-154286270 154286270"/>
    </person>
    <person id="7" depart="70.00" departPos="random">
        <walk edges="688169643#0 688214484#1 688182528 687376010#1 687376010#2"/>
    </person>
    <person id="8" depart="80.00" departPos="random">
        <walk edges="412441780#0 687377254 687377255"/>
    </person>
    <person id="9" depart="90.00" departPos="random">
        <walk edges="688171462#3 688171462#2 688171462#1 -154286264"/>
    </person>
    <person id="10" depart="100.00" departPos="random">
        <walk edges="688171462#3 672153002#0 672153002#1 688182530 688169644#1"/>
    </person>
    <person id="11" depart="110.00" departPos="random">
        <walk edges="672153002#3 -688203507 -688203506"/>
    </person>
    <person id="12" depart="120.00" departPos="random">
        <walk edges="688203507 672153002#3"/>
    </person>
    <person id="13" depart="130.00" departPos="random">
        <walk edges="-687224337 674382481#1 -154286264 688171462#1 688171462#2 688182531 688169643#1 688169643#2 688199688#1 -688162251"/>
    </person>
    <person id="14" depart="140.00" departPos="random">
        <walk edges="688182530 672153002#1 687443514"/>
    </person>
    <person id="15" depart="150.00" departPos="random">
        <walk edges="688171462#3 672153002#0 672153002#1 688182530 688169644#0 688169645"/>
    </person>
    <person id="16" depart="160.00" departPos="random">
        <walk edges="687376010#2 687376010#1 688182528 688214484#0 688214482"/>
    </person>
    <person id="17" depart="170.00" departPos="random">
        <walk edges="672153002#6 672153002#5 672153002#4 672153002#3 672153002#2 688182530 688169644#1 687376010#0 687376010#1 687376010#2 687376010#3"/>
    </person>
    <person id="18" depart="180.00" departPos="random">
        <walk edges="688182529 687375092#0 687443515"/>
    </person>
    <person id="19" depart="190.00" departPos="random">
        <walk edges="688182531 688171462#2 687375093 687375092#2 687377255 687377254"/>
    </person>
    <person id="20" depart="200.00" departPos="random">
        <walk edges="688169644#1 688182530 672153002#1 672153002#0 688171462#3 688171462#2 688171462#1 -154286264 674382481#1 -674382481#0"/>
    </person>
    <person id="21" depart="210.00" departPos="random">
        <walk edges="412441780#1 412441780#2 672153002#1 688182530 688169644#1 687376010#0 688182528 688214484#0 688214482 50437161"/>
    </person>
    <person id="22" depart="220.00" departPos="random">
        <walk edges="-674382481#2 674382481#2 -154286264 688171462#1 688171462#2 688171462#3 687375092#0 688182529 412441780#1"/>
    </person>
    <person id="23" depart="230.00" departPos="random">
        <walk edges="-688162251 -688199688#1 688169643#2 50437158"/>
    </person>
    <person id="24" depart="240.00" departPos="random">
        <walk edges="688162251 -688199688#1 688169643#2 688169643#1 688169643#0 688169644#2 688169644#1 688182530 672153002#2 672153002#3 672153002#4 672153002#5"/>
    </person>
    <person id="25" depart="250.00" departPos="random">
        <walk edges="672153002#5 672153002#4 672153002#3 672153002#2 688182530 688169644#1 687376010#0 687376010#1 687376010#2 688199692 406699916#0"/>
    </person>
    <person id="26" depart="260.00" departPos="random">
        <walk edges="50437158 688214484#0 688182528 687376010#0 688169644#1 688182530 672153002#2 672153002#3 -688203507 688203506"/>
    </person>
    <person id="27" depart="270.00" departPos="random">
        <walk edges="688169643#0 687443515 672153002#0 687443514"/>
    </person>
    <person id="28" depart="280.00" departPos="random">
        <walk edges="-688203507 672153002#3 672153002#2 688182530 688169644#0 688169645"/>
    </person>
    <person id="29" depart="290.00" departPos="random">
        <walk edges="-688203507 -688203506 -688203505 672153002#5 672153002#6"/>
    </person>
    <person id="30" depart="300.00" departPos="random">
        <walk edges="688214484#1 688169643#0 688169643#1 688169643#2 688199688#1 688162251"/>
    </person>
    <person id="31" depart="310.00" departPos="random">
        <walk edges="687376010#3 687376010#2 50437157 688169644#0"/>
    </person>
    <person id="32" depart="320.00" departPos="random">
        <walk edges="688182530 672153002#1 672153002#0 688171462#3 688171462#2 688171462#1"/>
    </person>
    <person id="33" depart="330.00" departPos="random">
        <walk edges="412441780#1 412441780#2 672153002#1 688182530 688169644#1 687376010#0 687376010#1 687376010#2 688199692 -406699916#0"/>
    </person>
    <person id="34" depart="340.00" departPos="random">
        <walk edges="672153002#1 688182530 688169644#1 687376010#0 688182528 688214484#0 50437158"/>
    </person>
    <person id="35" depart="350.00" departPos="random">
        <walk edges="406699916#0 688199692 687376010#2 687376010#1 687376010#0 688169644#1 688182530 672153002#2 672153002#3 -688203507 688203506"/>
    </person>
    <person id="36" depart="360.00" departPos="random">
        <walk edges="688199688#0 -688199688#0 -688199688#1 688169643#2 688169643#1 688182531 688171462#3 672153002#0 672153002#1"/>
    </person>
    <person id="37" depart="370.00" departPos="random">
        <walk edges="688169643#1 688182531 688171462#2 688171462#1 -154286264 674382481#1 674382481#0"/>
    </person>
    <person id="38" depart="380.00" departPos="random">
        <walk edges="688199692 687376010#2 687376010#1 687376010#0 688169644#1 688182530 672153002#1 412441780#2 688182529 687375092#1"/>
    </person>
    <person id="39" depart="390.00" departPos="random">
        <walk edges="50437157 688169644#0 688182530 672153002#1 412441780#2"/>
    </person>
    <person id="40" depart="400.00" departPos="random">
        <walk edges="687376010#4 687376010#3 687376010#2 50437157"/>
    </person>
    <person id="41" depart="410.00" departPos="random">
        <walk edges="687377254 687377255 687375092#2 687375092#1 688182529 412441780#2 672153002#1 688182530 688169644#1 687376010#0 687376010#1 687376010#2 688199692 688199690"/>
    </person>
    <person id="42" depart="420.00" departPos="random">
        <walk edges="674382481#0 -674382481#0 674382481#1 -154286264 688171462#1 688171462#2 688171462#3 687375092#0 688182529 412441780#1 412441780#0"/>
    </person>
    <person id="43" depart="430.00" departPos="random">
        <walk edges="688214484#1 688182528 687376010#0"/>
    </person>
    <person id="44" depart="440.00" departPos="random">
        <walk edges="-687224337 -674382481#0"/>
    </person>
    <person id="45" depart="450.00" departPos="random">
        <walk edges="-688199688#0 688162251"/>
    </person>
    <person id="46" depart="460.00" departPos="random">
        <walk edges="688171462#2 688171462#1 -154286264 674382481#2"/>
    </person>
    <person id="47" depart="470.00" departPos="random">
        <walk edges="-674382481#1 -154286264 688171462#1 688171462#2 688171462#3 672153002#0 672153002#1 672153002#2 672153002#3 672153002#4 672153002#5 672153002#6"/>
    </person>
    <person id="48" depart="480.00" departPos="random">
        <walk edges="688214484#1 688182528 687376010#1"/>
    </person>
    <person id="49" depart="490.00" departPos="random">
        <walk edges="688214482 688214484#0 688214484#1 688169643#0 688182531"/>
    </person>
    <person id="50" depart="500.00" departPos="random">
        <walk edges="-154286264 688171462#1 688171462#2 688171462#3 672153002#0 672153002#1 688182530 688169644#0 688169645"/>
    </person>
    <person id="51" depart="510.00" departPos="random">
        <walk edges="688169644#0 50437157 687376010#2"/>
    </person>
    <person id="52" depart="520.00" departPos="random">
        <walk edges="50437158 688214484#0 688214484#1 688169643#0"/>
    </person>
    <person id="53" depart="530.00" departPos="random">
        <walk edges="-688199688#0 -688199688#1 688169643#2 688169643#1 688182531 688171462#2 688171462#1 -154286264 674382481#1 687224337"/>
    </person>
    <person id="54" depart="540.00" departPos="random">
        <walk edges="687375092#1 688182529 412441780#1 687376009 672153002#3 688203507"/>
    </person>
    <person id="55" depart="550.00" departPos="random">
        <walk edges="688199688#0 -688199688#0 -688199688#1 688169643#2 688169643#1 688169643#0 688169644#2 688169644#1 688169644#0 50437157"/>
    </person>
    <person id="56" depart="560.00" departPos="random">
        <walk edges="687376009 412441780#1 688182529 687375092#0 688171462#3 688171462#2 688171462#1 154286264"/>
    </person>
    <person id="57" depart="570.00" departPos="random">
        <walk edges="688199692 687376010#2 687376010#1 688182528 688214484#1 688169643#0 688169643#1 688169643#2 688199688#1 -688199688#0 688199688#0"/>
    </person>
    <person id="58" depart="580.00" departPos="random">
        <walk edges="672153002#0 688171462#3 688182531 688169643#1 688169643#2 688199688#1 688162251"/>
    </person>
    <person id="59" depart="590.00" departPos="random">
        <walk edges="687443514 672153002#1 672153002#2 672153002#3 -688203507 -688203506"/>
    </person>
    <person id="60" depart="600.00" departPos="random">
        <walk edges="688171462#0 688171462#1 688171462#2 688182531 688169643#0 688214484#1 688182528 687376010#1 687376010#2"/>
    </person>
    <person id="61" depart="610.00" departPos="random">
        <walk edges="688171462#1 688171462#2 688182531 688169643#0 688214484#1 688182528 687376010#1"/>
    </person>
    <person id="62" depart="620.00" departPos="random">
        <walk edges="-154286264 688171462#1 688171462#2 688171462#3 672153002#0 672153002#1 672153002#2"/>
    </person>
    <person id="63" depart="630.00" departPos="random">
        <walk edges="-154286270 154286270 -674382481#0 674382481#1 -154286264 688171462#1 688171462#2 688171462#3 672153002#0 672153002#1 672153002#2 672153002#3 -688203507 -688203506 688203505"/>
    </person>
    <person id="64" depart="640.00" departPos="random">
        <walk edges="688199688#0 -688199688#0 -688199688#1 688169643#2 688169643#1 688182531 688171462#3 687375092#0 688182529"/>
    </person>
    <person id="65" depart="650.00" departPos="random">
        <walk edges="672153002#1 672153002#0 688171462#3 688171462#2 688171462#1 -154286264 -674382481#1"/>
    </person>
    <person id="66" depart="660.00" departPos="random">
        <walk edges="688199688#0 -688199688#0 -688199688#1 688169643#2 688169643#1 688169643#0 688169644#2 688169644#1 688182530 672153002#2 672153002#3 688203507"/>
    </person>
    <person id="67" depart="670.00" departPos="random">
        <walk edges="-687224337 674382481#1 -154286264 688171462#1 687375093"/>
    </person>
    <person id="68" depart="680.00" departPos="random">
        <walk edges="-674382481#2 674382481#2 -154286264 688171462#0"/>
    </person>
    <person id="69" depart="690.00" departPos="random">
        <walk edges="688171462#0 688171462#1 688171462#2 688182531 688169643#1 688169643#2 -688199688#1"/>
    </person>
    <person id="70" depart="700.00" departPos="random">
        <walk edges="687375092#2 687375092#1 688182529 412441780#2 672153002#1 688182530 688169644#1 687376010#0 687376010#1 687376010#2 687376010#3"/>
    </person>
    <person id="71" depart="710.00" departPos="random">
        <walk edges="50437157 688169644#0 688169644#1 688169644#2 688169643#0 688169643#1 688169643#2 688199688#1 -688199688#0 688199688#0"/>
    </person>
    <person id="72" depart="720.00" departPos="random">
        <walk edges="674382481#2 -154286264 688171462#1 688171462#2 688182531 688169643#0 688214484#1 688182528 687376010#1 687376010#2 688199692 406699916#0"/>
    </person>
    <person id="73" depart="730.00" departPos="random">
        <walk edges="687376010#2 50437157 688169645"/>
    </person>
    <person id="74" depart="740.00" departPos="random">
        <walk edges="406699916#0 688199692 687376010#2 687376010#1 687376010#0 688169644#1 688182530 672153002#1"/>
    </person>
    <person id="75" depart="750.00" departPos="random">
        <walk edges="688214484#1 688169643#0"/>
    </person>
    <person id="76" depart="760.00" departPos="random">
        <walk edges="687224337 674382481#1 -154286264 688171462#1 688171462#2 688182531 688169643#0 688169644#2 687376010#0"/>
    </person>
    <person id="77" depart="770.00" departPos="random">
        <walk edges="-688199688#1 688169643#2 688169643#1 688182531 688171462#3 687375092#0 688182529 412441780#1 412441780#0"/>
    </person>
    <person id="78" depart="780.00" departPos="random">
        <walk edges="672153002#3 687376009 412441780#1 688182529 687375092#1 687375092#2 687377255"/>
    </person>
    <person id="79" depart="790.00" departPos="random">
        <walk edges="412441780#1 412441780#0"/>
    </person>
    <person id="80" depart="800.00" departPos="random">
        <walk edges="-674382481#2 674382481#2 -154286264 688171462#1 688171462#2 688182531 688169643#1 688169643#2 688199688#1 688162251"/>
    </person>
    <person id="81" depart="810.00" departPos="random">
        <walk edges="412441780#1 412441780#2 672153002#1 688182530 688169644#1 687376010#0 687376010#1 687376010#2 688199692 688199690"/>
    </person>
    <person id="82" depart="820.00" departPos="random">
        <walk edges="688182531 688171462#2 688171462#1 -154286264 -674382481#2"/>
    </person>
    <person id="83" depart="830.00" departPos="random">
        <walk edges="412441780#1 688182529 687375092#0 688171462#3 688182531 688169643#1 688169643#2"/>
    </person>
    <person id="84" depart="840.00" departPos="random">
        <walk edges="412441780#0 412441780#1 688182529 687375092#0 688171462#3 688182531 688169643#1 688169643#2 -688199688#1"/>
    </person>
    <person id="85" depart="850.00" departPos="random">
        <walk edges="688203506 -688203507 672153002#3 672153002#2 688182530 688169644#1 687376010#0 687376010#1 687376010#2 687376010#3 687376010#4"/>
    </person>
    <person id="86" depart="860.00" departPos="random">
        <walk edges="687375092#2 687375093 688171462#1"/>
    </person>
    <person id="87" depart="870.00" departPos="random">
        <walk edges="688171462#3 688171462#2 688171462#1 -154286264 674382481#1 674382481#0 154286270"/>
    </person>
    <person id="88" depart="880.00" departPos="random">
        <walk edges="-688162251 -688199688#1 688169643#2 688169643#1 688182531 688171462#2 688171462#1 -154286264 674382481#1 687224337"/>
    </person>
    <person id="89" depart="890.00" departPos="random">
        <walk edges="674382481#2 -154286264 688171462#1 687375093 687375092#2"/>
    </person>
    <person id="90" depart="900.00" departPos="random">
        <walk edges="688169645 688169644#0 688169644#1 688169644#2 688169643#0 688169643#1 688169643#2"/>
    </person>
    <person id="91" depart="910.00" departPos="random">
        <walk edges="688214484#0 50437158 688169643#2 688199688#1 -688162251"/>
    </person>
    <person id="92" depart="920.00" departPos="random">
        <walk edges="674382481#1 -154286264 688171462#1 688171462#2 688171462#3 672153002#0 672153002#1 672153002#2 672153002#3"/>
    </person>
    <person id="93" depart="930.00" departPos="random">
        <walk edges="688182531 688171462#3 687375092#0 688182529 412441780#2"/>
    </person>
    <person id="94" depart="940.00" departPos="random">
        <walk edges="154286270 -674382481#0 674382481#1 -154286264 688171462#1 688171462#2 688171462#3 687375092#0"/>
    </person>
    <person id="95" depart="950.00" departPos="random">
        <walk edges="674382481#2 -154286264 688171462#1 688171462#2 688182531 688169643#0 688214484#1 688214484#0 50437158"/>
    </person>
    <person id="96" depart="960.00" departPos="random">
        <walk edges="412441780#2 412441780#1 687376009 672153002#3 -688203507 -688203506 688203505"/>
    </person>
    <person id="97" depart="970.00" departPos="random">
        <walk edges="687375092#0 688171462#3 688182531"/>
    </person>
    <person id="98" depart="980.00" departPos="random">
        <walk edges="687376010#3 687376010#2 687376010#1 688182528 688214484#1 688169643#0 688182531 688171462#2 688171462#1 -154286264 674382481#1 -674382481#0"/>
    </person>
    <person id="99" depart="990.00" departPos="random">
        <walk edges="688214484#1 688182528 687376010#0 688169644#1 688182530 672153002#1 412441780#2 688182529"/>
    </person>
    <person id="100" depart="1000.00" departPos="random">
        <walk edges="688214482 688214484#0 688182528 687376010#0 688169644#1 688182530 672153002#2 672153002#3 -688203507 -688203506 688203505"/>
    </person>
    <person id="101" depart="1010.00" departPos="random">
        <walk edges="688182530 672153002#2 672153002#3 -688203507"/>
    </person>
    <person id="102" depart="1020.00" departPos="random">
        <walk edges="687375093 688171462#2 688171462#3 687375092#0 688182529 412441780#1 412441780#0"/>
    </person>
    <person id="103" depart="1030.00" departPos="random">
        <walk edges="674382481#1 -674382481#1"/>
    </person>
    <person id="104" depart="1040.00" departPos="random">
        <walk edges="672153002#6 672153002#5 672153002#4 672153002#3 672153002#2 688182530 688169644#1 687376010#0 688182528 688214484#0"/>
    </person>
    <person id="105" depart="1050.00" departPos="random">
        <walk edges="50437157 688169644#0 688182530 672153002#1 672153002#0 688171462#3 688171462#2 688171462#1"/>
    </person>
    <person id="106" depart="1060.00" departPos="random">
        <walk edges="687375092#1 687375092#0 688171462#3 688171462#2 688171462#1 -154286264 674382481#2"/>
    </person>
    <person id="107" depart="1070.00" departPos="random">
        <walk edges="688203507 672153002#3 672153002#2 688182530 688169644#1 687376010#0 688182528 688214484#1"/>
    </person>
    <person id="108" depart="1080.00" departPos="random">
        <walk edges="687376010#3 687376010#2 687376010#1 687376010#0 688169644#2"/>
    </person>
    <person id="109" depart="1090.00" departPos="random">
        <walk edges="-688203506 -688203507 672153002#3 672153002#2 672153002#1 672153002#0"/>
    </person>
    <person id="110" depart="1100.00" departPos="random">
        <walk edges="688214482 688214484#0 688182528 687376010#0 688169644#1 688182530 672153002#1 412441780#2 688182529 687375092#1 687375092#2 687377255 687377254"/>
    </person>
    <person id="111" depart="1110.00" departPos="random">
        <walk edges="687376010#2 687376010#1 688182528 688214484#1 688169643#0 688169643#1 688169643#2 688170737"/>
    </person>
    <person id="112" depart="1120.00" departPos="random">
        <walk edges="-674382481#1 -154286264 688171462#1 687375093 687375092#2 687377255 687377254"/>
    </person>
    <person id="113" depart="1130.00" departPos="random">
        <walk edges="687376009 412441780#1 412441780#2 672153002#1 688182530"/>
    </person>
    <person id="114" depart="1140.00" departPos="random">
        <walk edges="-688203506 -688203507 672153002#3 672153002#2 688182530 688169644#1 687376010#0 688182528 688214484#0 688214482"/>
    </person>
    <person id="115" depart="1150.00" departPos="random">
        <walk edges="-687224337 674382481#1 -154286264 154286264"/>
    </person>
    <person id="116" depart="1160.00" departPos="random">
        <walk edges="687377255 687375092#2 687375093 688171462#2 688182531 688169643#1 688169643#2"/>
    </person>
    <person id="117" depart="1170.00" departPos="random">
        <walk edges="412441780#1 688182529 687375092#0 688171462#3 688182531 688169643#1 688169643#2 688199688#1 -688199688#0"/>
    </person>
    <person id="118" depart="1180.00" departPos="random">
        <walk edges="688199688#1 -688199688#1 688169643#2 688169643#1 688182531 688171462#3 687375092#0 688182529 412441780#2"/>
    </person>
    <person id="119" depart="1190.00" departPos="random">
        <walk edges="687377255 687375092#2 687375092#1 687375092#0 687443515"/>
    </person>
    <person id="120" depart="1200.00" departPos="random">
        <walk edges="674382481#2 -154286264 688171462#1 687375093 687375092#2 687377255 687377254"/>
    </person>
    <person id="121" depart="1210.00" departPos="random">
        <walk edges="687376010#1 687376010#0 688169644#1 688182530 672153002#2 672153002#3 -688203507 688203506"/>
    </person>
    <person id="122" depart="1220.00" departPos="random">
        <walk edges="406699916#0 688199692 687376010#2 687376010#1 687376010#0 688169644#2"/>
    </person>
    <person id="123" depart="1230.00" departPos="random">
        <walk edges="412441780#1 688182529 687375092#0 688171462#3 688171462#2 688171462#1 -154286264 674382481#1 674382481#0"/>
    </person>
    <person id="124" depart="1240.00" departPos="random">
        <walk edges="688169643#2 688169643#1 688182531 688171462#3 672153002#0"/>
    </person>
    <person id="125" depart="1250.00" departPos="random">
        <walk edges="672153002#1 672153002#0 688171462#3 688182531 688169643#1 688169643#2 688170737"/>
    </person>
    <person id="126" depart="1260.00" departPos="random">
        <walk edges="-674382481#2 674382481#2 -154286264 688171462#1 688171462#2 688171462#3 687375092#0 687375092#1"/>
    </person>
    <person id="127" depart="1270.00" departPos="random">
        <walk edges="688214484#1"/>
    </person>
    <person id="128" depart="1280.00" departPos="random">
        <walk edges="-674382481#2 674382481#2 -154286264 688171462#1 688171462#2 688182531 688169643#0 688214484#1 688182528 687376010#1 687376010#2 688199692 406699916#0"/>
    </person>
    <person id="129" depart="1290.00" departPos="random">
        <walk edges="50437157 688169644#0 688182530 672153002#2 672153002#3 -688203507 -688203506 688203505"/>
    </person>
    <person id="130" depart="1300.00" departPos="random">
        <walk edges="688199688#1 -688199688#0 688199688#0"/>
    </person>
    <person id="131" depart="1310.00" departPos="random">
        <walk edges="672153002#5 -688203505 -688203506"/>
    </person>
    <person id="132" depart="1320.00" departPos="random">
        <walk edges="688182529 412441780#2 672153002#1 688182530 688169644#1"/>
    </person>
    <person id="133" depart="1330.00" departPos="random">
        <walk edges="687443514 672153002#1 688182530 688169644#1 687376010#0 688182528 688214484#1"/>
    </person>
    <person id="134" depart="1340.00" departPos="random">
        <walk edges="688169643#1 688182531 688171462#2 688171462#1 -154286264"/>
    </person>
    <person id="135" depart="1350.00" departPos="random">
        <walk edges="688182528 687376010#0 688169644#1 688182530 672153002#1 672153002#0"/>
    </person>
    <person id="136" depart="1360.00" departPos="random">
        <walk edges="688169643#1 688169643#0 688169644#2 688169644#1 688182530 672153002#2 672153002#3 -688203507 688203506"/>
    </person>
    <person id="137" depart="1370.00" departPos="random">
        <walk edges="-688203505 672153002#4 672153002#3 672153002#2 688182530 688169644#1 688169644#2 688169643#0 688169643#1 688169643#2 688199688#1 -688199688#0"/>
    </person>
    <person id="138" depart="1380.00" departPos="random">
        <walk edges="-688199688#0 -688199688#1 688169643#2 688169643#1 688169643#0 688214484#1 688182528 687376010#1 687376010#2 687376010#3"/>
    </person>
    <person id="139" depart="1390.00" departPos="random">
        <walk edges="50437158 688214484#0 688182528 687376010#0 688169644#1 688182530 672153002#1 687443514"/>
    </person>
    <person id="140" depart="1400.00" departPos="random">
        <walk edges="688169644#2 687376010#0 687376010#1 687376010#2 688199692 406699916#0"/>
    </person>
    <person id="141" depart="1410.00" departPos="random">
        <walk edges="688162251 -688199688#1 688169643#2 688169643#1 688169643#0 688169644#2 688169644#1 688169644#0 50437157"/>
    </person>
    <person id="142" depart="1420.00" departPos="random">
        <walk edges="687375093 688171462#2 688182531 688169643#0 688214484#1 688182528 687376010#1 687376010#2 688199692 688199690"/>
    </person>
    <person id="143" depart="1430.00" departPos="random">
        <walk edges="688182530 672153002#1 672153002#0 688171462#3 688171462#2 688171462#1 -154286264 674382481#1 -687224337"/>
    </person>
    <person id="144" depart="1440.00" departPos="random">
        <walk edges="674382481#2 -154286264 688171462#1 688171462#2 688182531 688169643#0 688214484#1 688214484#0 50437158"/>
    </person>
    <person id="145" depart="1450.00" departPos="random">
        <walk edges="-154286264 688171462#0"/>
    </person>
    <person id="146" depart="1460.00" departPos="random">
        <walk edges="688162251 -688199688#1 688169643#2 688169643#1 688169643#0 688169644#2 688169644#1 688169644#0 50437157"/>
    </person>
    <person id="147" depart="1470.00" departPos="random">
        <walk edges="688169646 688169645 50437157 687376010#2 687376010#3"/>
    </person>
    <person id="148" depart="1480.00" departPos="random">
        <walk edges="687224337 674382481#1 -154286264"/>
    </person>
    <person id="149" depart="1490.00" departPos="random">
        <walk edges="-674382481#2 674382481#2 -154286264 688171462#1 688171462#2 688182531 688169643#1 688169643#2 688199688#1"/>
    </person>
    <person id="150" depart="1500.00" departPos="random">
        <walk edges="688199690 688199692 687376010#2"/>
    </person>
    <person id="151" depart="1510.00" departPos="random">
        <walk edges="688182529 687375092#1 687375092#2 687377255 687377254"/>
    </person>
    <person id="152" depart="1520.00" departPos="random">
        <walk edges="-688203506 -688203507 672153002#3 672153002#2 688182530 688169644#1 688169644#2 688169643#0 688169643#1 688169643#2 -688199688#1"/>
    </person>
    <person id="153" depart="1530.00" departPos="random">
        <walk edges="672153002#1 688182530 688169644#1 687376010#0 687376010#1 687376010#2 688199692 688199690"/>
    </person>
    <person id="154" depart="1540.00" departPos="random">
        <walk edges="688171462#2 688182531"/>
    </person>
    <person id="155" depart="1550.00" departPos="random">
        <walk edges="688199690 406699916#0"/>
    </person>
    <person id="156" depart="1560.00" departPos="random">
        <walk edges="412441780#2 688182529 687375092#0 688171462#3 688182531 688169643#1 688169643#2 688199688#1 -688162251"/>
    </person>
    <person id="157" depart="1570.00" departPos="random">
        <walk edges="688171462#1 688171462#2 688182531 688169643#1 688169643#2 688199688#1"/>
    </person>
    <person id="158" depart="1580.00" departPos="random">
        <walk edges="674382481#1 -154286264 688171462#1 688171462#2 688182531 688169643#0 687443515"/>
    </person>
    <person id="159" depart="1590.00" departPos="random">
        <walk edges="-688203506 688203505"/>
    </person>
    <person id="160" depart="1600.00" departPos="random">