<?xml version="1.0" encoding="UTF-8"?>

<!-- generated on 2024-11-27 17:48:21.436645 by randomTrips1.py v1_19_0+0000-baa66a0f364
<configuration>
    <net-file value="city_network.net.xml"/>
    <weights-prefix value="generated_weights"/>
    <route-file value="city_map_modified_gaussian.rou.xml"/>
    <trip-attributes value="departPos='random' departSpeed='max'"/>
    <allow-fringe value="True"/>
    <end value="68400.0"/>
</configuration>
-->

<routes xmlns:xsi="http://www.w3.org/2001/XMLSchema-instance" xsi:noNamespaceSchemaLocation="http://sumo.dlr.de/xsd/routes_file.xsd">
    <trip id="0" depart="0.00" from="688169644#1" to="-688199688#1" departPos='random' departSpeed='max'/>
    <trip id="1" depart="0.00" from="50437161" to="672153002#6" departPos='random' departSpeed='max'/>
    <trip id="2" depart="0.00" from="688169646" to="688170737" departPos='random' departSpeed='max'/>
    <trip id="3" depart="0.00" from="688171462#0" to="50437161" departPos='random' departSpeed='max'/>
    <trip id="4" depart="0.00" from="687376010#4" to="154286264" departPos='random' departSpeed='max'/>
    <trip id="5" depart="0.00" from="50437161" to="687376010#4" departPos='random' departSpeed='max'/>
    <trip id="6" depart="0.00" from="-688199688#1" to="672153002#6" departPos='random' departSpeed='max'/>
    <trip id="7" depart="0.00" from="688169645" to="687376010#4" departPos='random' departSpeed='max'/>
    <trip id="8" depart="0.00" from="50437161" to="687376010#4" departPos='random' departSpeed='max'/>
    <trip id="9" depart="0.00" from="688171462#0" to="-154286264" departPos='random' departSpeed='max'/>
    <trip id="10" depart="0.00" from="688170737" to="688170737" departPos='random' departSpeed='max'/>
    <trip id="11" depart="0.00" from="672153002#2" to="672153002#6" departPos='random' departSpeed='max'/>
    <trip id="12" depart="0.00" from="688171462#1" to="672153002#6" departPos='random' departSpeed='max'/>
    <trip id="13" depart="0.00" from="412441780#0" to="672153002#3" departPos='random' departSpeed='max'/>
    <trip id="14" depart="0.00" from="688171462#0" to="688169643#2" departPos='random' departSpeed='max'/>
    <trip id="15" depart="0.00" from="688171462#0" to="688170737" departPos='random' departSpeed='max'/>
    <trip id="16" depart="0.00" from="687376010#4" to="688214482" departPos='random' departSpeed='max'/>
    <trip id="17" depart="0.00" from="687375093" to="687376010#4" departPos='random' departSpeed='max'/>
    <trip id="18" depart="0.00" from="688171462#0" to="688169645" departPos='random' departSpeed='max'/>
    <trip id="19" depart="0.00" from="688171462#0" to="687376010#4" departPos='random' departSpeed='max'/>
    <trip id="20" depart="0.00" from="688169646" to="412441780#0" departPos='random' departSpeed='max'/>
    <trip id="21" depart="0.00" from="50437161" to="672153002#6" departPos='random' departSpeed='max'/>
    <trip id="22" depart="0.00" from="412441780#0" to="672153002#6" departPos='random' departSpeed='max'/>
    <trip id="23" depart="0.00" from="412441780#0" to="672153002#6" departPos='random' departSpeed='max'/>
    <trip id="24" depart="0.00" from="688169644#0" to="672153002#6" departPos='random' departSpeed='max'/>
    <trip id="25" depart="0.00" from="687375092#1" to="672153002#6" departPos='random' departSpeed='max'/>
    <trip id="26" depart="0.00" from="50437161" to="688199690" departPos='random' departSpeed='max'/>
    <trip id="27" depart="0.00" from="688169645" to="688169643#2" departPos='random' departSpeed='max'/>
    <trip id="28" depart="0.00" from="412441780#0" to="688170737" departPos='random' departSpeed='max'/>
    <trip id="29" depart="0.00" from="412441780#0" to="672153002#6" departPos='random' departSpeed='max'/>
    <trip id="30" depart="0.00" from="688214482" to="688169646" departPos='random' departSpeed='max'/>
    <trip id="31" depart="0.00" from="687376010#4" to="688170737" departPos='random' departSpeed='max'/>
    <trip id="32" depart="0.00" from="688171462#0" to="688170737" departPos='random' departSpeed='max'/>
    <trip id="33" depart="0.00" from="50437161" to="154286264" departPos='random' departSpeed='max'/>
    <trip id="34" depart="0.00" from="50437161" to="672153002#6" departPos='random' departSpeed='max'/>
    <trip id="35" depart="0.00" from="50437161" to="688199690" departPos='random' departSpeed='max'/>
    <trip id="36" depart="0.00" from="688171462#0" to="672153002#6" departPos='random' departSpeed='max'/>
    <trip id="37" depart="0.00" from="688169646" to="687375092#0" departPos='random' departSpeed='max'/>
    <trip id="38" depart="0.00" from="688171462#0" to="687376010#2" departPos='random' departSpeed='max'/>
    <trip id="39" depart="0.00" from="50437161" to="672153002#6" departPos='random' departSpeed='max'/>
    <trip id="40" depart="0.00" from="687376010#4" to="672153002#6" departPos='random' departSpeed='max'/>
    <trip id="41" depart="0.00" from="687376010#4" to="688171462#0" departPos='random' departSpeed='max'/>
    <trip id="42" depart="0.00" from="687376010#2" to="672153002#6" departPos='random' departSpeed='max'/>
    <trip id="43" depart="0.00" from="688214484#1" to="687376010#4" departPos='random' departSpeed='max'/>
    <trip id="44" depart="0.00" from="412441780#0" to="412441780#0" departPos='random' departSpeed='max'/>
    <trip id="45" depart="0.00" from="412441780#0" to="688169645" departPos='random' departSpeed='max'/>
    <trip id="46" depart="0.00" from="688169646" to="687375092#2" departPos='random' departSpeed='max'/>
    <trip id="47" depart="0.00" from="412441780#0" to="672153002#6" departPos='random' departSpeed='max'/>
    <trip id="48" depart="0.00" from="688214484#1" to="687376010#4" departPos='random' departSpeed='max'/>
    <trip id="49" depart="0.00" from="688199688#1" to="688170737" departPos='random' departSpeed='max'/>
    <trip id="50" depart="0.00" from="-154286264" to="688170737" departPos='random' departSpeed='max'/>
    <trip id="51" depart="0.00" from="688169646" to="687376010#4" departPos='random' departSpeed='max'/>
    <trip id="52" depart="0.00" from="50437161" to="688169646" departPos='random' departSpeed='max'/>
    <trip id="53" depart="0.00" from="412441780#0" to="687376010#0" departPos='random' departSpeed='max'/>
    <trip id="54" depart="0.00" from="687376010#4" to="688199692" departPos='random' departSpeed='max'/>
    <trip id="55" depart="0.00" from="688171462#0" to="672153002#6" departPos='random' departSpeed='max'/>
    <trip id="56" depart="0.00" from="687376010#4" to="672153002#6" departPos='random' departSpeed='max'/>
    <trip id="57" depart="0.00" from="688171462#0" to="688170737" departPos='random' departSpeed='max'/>
    <trip id="58" depart="0.00" from="50437161" to="688169646" departPos='random' departSpeed='max'/>
    <trip id="59" depart="0.00" from="687443514" to="672153002#6" departPos='random' departSpeed='max'/>
    <trip id="60" depart="0.00" from="688169646" to="687376010#4" departPos='random' departSpeed='max'/>
    <trip id="61" depart="0.00" from="688169646" to="687376010#4" departPos='random' departSpeed='max'/>
    <trip id="62" depart="0.00" from="-154286264" to="672153002#6" departPos='random' departSpeed='max'/>
    <trip id="63" depart="0.00" from="-154286264" to="688199688#1" departPos='random' departSpeed='max'/>
    <trip id="64" depart="0.00" from="688171462#0" to="688170737" departPos='random' departSpeed='max'/>
    <trip id="65" depart="0.00" from="50437161" to="412441780#1" departPos='random' departSpeed='max'/>
    <trip id="66" depart="0.00" from="688171462#0" to="688199690" departPos='random' departSpeed='max'/>
    <trip id="67" depart="0.00" from="412441780#0" to="687376010#4" departPos='random' departSpeed='max'/>
    <trip id="68" depart="0.00" from="412441780#0" to="688170737" departPos='random' departSpeed='max'/>
    <trip id="69" depart="0.00" from="688169646" to="672153002#6" departPos='random' departSpeed='max'/>
    <trip id="70" depart="0.00" from="687376010#4" to="687376010#4" departPos='random' departSpeed='max'/>
    <trip id="71" depart="0.00" from="50437161" to="688170737" departPos='random' departSpeed='max'/>
    <trip id="72" depart="0.00" from="687376010#4" to="672153002#6" departPos='random' departSpeed='max'/>
    <trip id="73" depart="0.00" from="687376010#4" to="688170737" departPos='random' departSpeed='max'/>
    <trip id="74" depart="0.00" from="50437158" to="672153002#6" departPos='random' departSpeed='max'/>
    <trip id="75" depart="0.00" from="688214484#1" to="688170737" departPos='random' departSpeed='max'/>
    <trip id="76" depart="0.00" from="687376010#4" to="687376010#4" departPos='random' departSpeed='max'/>
    <trip id="77" depart="0.00" from="412441780#0" to="672153002#6" departPos='random' departSpeed='max'/>
    <trip id="78" depart="0.00" from="672153002#1" to="687376010#4" departPos='random' departSpeed='max'/>
    <trip id="79" depart="0.00" from="50437161" to="672153002#6" departPos='random' departSpeed='max'/>
    <trip id="80" depart="0.00" from="412441780#0" to="688169646" departPos='random' departSpeed='max'/>
    <trip id="81" depart="0.00" from="50437161" to="688171462#0" departPos='random' departSpeed='max'/>
    <trip id="82" depart="0.00" from="688171462#0" to="412441780#2" departPos='random' departSpeed='max'/>
    <trip id="83" depart="0.00" from="50437161" to="688170737" departPos='random' departSpeed='max'/>
    <trip id="84" depart="0.00" from="50437161" to="672153002#6" departPos='random' departSpeed='max'/>
    <trip id="85" depart="0.00" from="688171462#0" to="687376010#4" departPos='random' departSpeed='max'/>
    <trip id="86" depart="0.00" from="687376010#4" to="688170737" departPos='random' departSpeed='max'/>
    <trip id="87" depart="0.00" from="688171462#0" to="672153002#6" departPos='random' departSpeed='max'/>
    <trip id="88" depart="0.00" from="412441780#0" to="687376010#0" departPos='random' departSpeed='max'/>
    <trip id="89" depart="0.00" from="687376010#4" to="687376010#3" departPos='random' departSpeed='max'/>
    <trip id="90" depart="0.00" from="688169646" to="688170737" departPos='random' departSpeed='max'/>
    <trip id="91" depart="0.00" from="688199692" to="672153002#3" departPos='random' departSpeed='max'/>
    <trip id="92" depart="0.00" from="687376010#2" to="672153002#6" departPos='random' departSpeed='max'/>
    <trip id="93" depart="0.00" from="688171462#0" to="672153002#6" departPos='random' departSpeed='max'/>
    <trip id="94" depart="0.00" from="412441780#2" to="687376010#1" departPos='random' departSpeed='max'/>
    <trip id="95" depart="0.00" from="687376010#4" to="672153002#6" departPos='random' departSpeed='max'/>
    <trip id="96" depart="0.00" from="50437161" to="688199688#1" departPos='random' departSpeed='max'/>
    <trip id="97" depart="0.00" from="687376010#4" to="688170737" departPos='random' departSpeed='max'/>
    <trip id="98" depart="0.00" from="687376010#4" to="412441780#0" departPos='random' departSpeed='max'/>
    <trip id="99" depart="0.00" from="688214484#1" to="688170737" departPos='random' departSpeed='max'/>
    <trip id="100" depart="0.00" from="688171462#3" to="688199688#1" departPos='random' departSpeed='max'/>
    <trip id="101" depart="0.00" from="688171462#0" to="672153002#6" departPos='random' departSpeed='max'/>
    <trip id="102" depart="0.00" from="687376010#4" to="672153002#6" departPos='random' departSpeed='max'/>
    <trip id="103" depart="0.00" from="687376010#2" to="412441780#1" departPos='random' departSpeed='max'/>
    <trip id="104" depart="0.00" from="687375093" to="688214484#0" departPos='random' departSpeed='max'/>
    <trip id="105" depart="0.00" from="50437161" to="688170737" departPos='random' departSpeed='max'/>
    <trip id="106" depart="0.00" from="687376010#4" to="687375092#2" departPos='random' departSpeed='max'/>
    <trip id="107" depart="0.00" from="688171462#1" to="688214484#1" departPos='random' departSpeed='max'/>
    <trip id="108" depart="0.00" from="687376010#4" to="688170737" departPos='random' departSpeed='max'/>
    <trip id="109" depart="0.00" from="412441780#0" to="672153002#6" departPos='random' departSpeed='max'/>
    <trip id="110" depart="0.00" from="688171462#3" to="687376010#4" departPos='random' departSpeed='max'/>
    <trip id="111" depart="0.00" from="687376010#4" to="688170737" departPos='random' departSpeed='max'/>
    <trip id="112" depart="0.00" from="412441780#0" to="687376010#4" departPos='random' departSpeed='max'/>
    <trip id="113" depart="0.00" from="687376010#4" to="688170737" departPos='random' departSpeed='max'/>
    <trip id="114" depart="0.00" from="412441780#0" to="688199692" departPos='random' departSpeed='max'/>
    <trip id="115" depart="0.00" from="412441780#0" to="672153002#6" departPos='random' departSpeed='max'/>
    <trip id="116" depart="0.00" from="687376010#4" to="688170737" departPos='random' departSpeed='max'/>
    <trip id="117" depart="0.00" from="50437161" to="672153002#5" departPos='random' departSpeed='max'/>
    <trip id="118" depart="0.00" from="688171462#0" to="672153002#6" departPos='random' departSpeed='max'/>
    <trip id="119" depart="0.00" from="687376010#4" to="688169645" departPos='random' departSpeed='max'/>
    <trip id="120" depart="0.00" from="687376010#4" to="687376010#4" departPos='random' departSpeed='max'/>
    <trip id="121" depart="0.00" from="687376010#4" to="688199688#1" departPos='random' departSpeed='max'/>
    <trip id="122" depart="0.00" from="50437161" to="688170737" departPos='random' departSpeed='max'/>
    <trip id="123" depart="0.00" from="50437161" to="687375092#0" departPos='random' departSpeed='max'/>
    <trip id="124" depart="0.00" from="688169646" to="672153002#6" departPos='random' departSpeed='max'/>
    <trip id="125" depart="0.00" from="50437161" to="688170737" departPos='random' departSpeed='max'/>
    <trip id="126" depart="0.00" from="412441780#0" to="687376010#2" departPos='random' departSpeed='max'/>
    <trip id="127" depart="0.00" from="688214484#1" to="688214484#1" departPos='random' departSpeed='max'/>
    <trip id="128" depart="0.00" from="412441780#0" to="672153002#6" departPos='random' departSpeed='max'/>
    <trip id="129" depart="0.00" from="50437161" to="688199688#1" departPos='random' departSpeed='max'/>
    <trip id="130" depart="0.00" from="688171462#0" to="688170737" departPos='random' departSpeed='max'/>
    <trip id="131" depart="0.00" from="687375092#1" to="672153002#6" departPos='random' departSpeed='max'/>
    <trip id="132" depart="0.00" from="688171462#0" to="688170737" departPos='random' departSpeed='max'/>
    <trip id="133" depart="0.00" from="687443514" to="688214484#1" departPos='random' departSpeed='max'/>
    <trip id="134" depart="0.00" from="688169646" to="-154286264" departPos='random' departSpeed='max'/>
    <trip id="135" depart="0.00" from="688171462#0" to="672153002#6" departPos='random' departSpeed='max'/>
    <trip id="136" depart="0.00" from="688169646" to="688199690" departPos='random' departSpeed='max'/>
    <trip id="137" depart="0.00" from="412441780#0" to="672153002#5" departPos='random' departSpeed='max'/>
    <trip id="138" depart="0.00" from="412441780#0" to="687376010#4" departPos='random' departSpeed='max'/>
    <trip id="139" depart="0.00" from="50437161" to="688169643#2" departPos='random' departSpeed='max'/>
    <trip id="140" depart="0.00" from="688169646" to="672153002#6" departPos='random' departSpeed='max'/>
    <trip id="141" depart="0.00" from="688169644#0" to="672153002#6" departPos='random' departSpeed='max'/>
    <trip id="142" depart="0.00" from="687376010#4" to="688171462#0" departPos='random' departSpeed='max'/>
    <trip id="143" depart="0.00" from="688171462#0" to="672153002#3" departPos='random' departSpeed='max'/>
    <trip id="144" depart="0.00" from="687376010#4" to="672153002#6" departPos='random' departSpeed='max'/>
    <trip id="145" depart="0.00" from="-154286264" to="688170737" departPos='random' departSpeed='max'/>
    <trip id="146" depart="0.00" from="688169644#1" to="672153002#6" departPos='random' departSpeed='max'/>
    <trip id="147" depart="0.00" from="688169646" to="687376010#4" departPos='random' departSpeed='max'/>
    <trip id="148" depart="0.00" from="687376010#4" to="-154286264" departPos='random' departSpeed='max'/>
    <trip id="149" depart="0.00" from="412441780#0" to="688170737" departPos='random' departSpeed='max'/>
    <trip id="150" depart="0.00" from="688171462#0" to="687376010#4" departPos='random' departSpeed='max'/>
    <trip id="151" depart="0.00" from="688171462#0" to="687376010#4" departPos='random' departSpeed='max'/>
    <trip id="152" depart="0.00" from="412441780#0" to="672153002#5" departPos='random' departSpeed='max'/>
    <trip id="153" depart="0.00" from="50437161" to="688171462#0" departPos='random' departSpeed='max'/>
    <trip id="154" depart="0.00" from="688169646" to="688170737" departPos='random' departSpeed='max'/>
    <trip id="155" depart="0.00" from="688171462#0" to="672153002#6" departPos='random' departSpeed='max'/>
    <trip id="156" depart="0.00" from="50437161" to="672153002#4" departPos='random' departSpeed='max'/>
    <trip id="157" depart="0.00" from="688169646" to="688170737" departPos='random' departSpeed='max'/>
    <trip id="158" depart="0.00" from="687376010#3" to="688169645" departPos='random' departSpeed='max'/>
    <trip id="159" depart="0.00" from="412441780#0" to="688199688#1" departPos='random' departSpeed='max'/>
    <trip id="160" depart="0.00" from="688171462#0" to="688214484#0" departPos='random' departSpeed='max'/>
    <trip id="161" depart="0.00" from="688171462#0" to="688170737" departPos='random' departSpeed='max'/>
    <trip id="162" depart="0.00" from="-154286264" to="688170737" departPos='random' departSpeed='max'/>
    <trip id="163" depart="0.00" from="672153002#0" to="688199688#1" departPos='random' departSpeed='max'/>
    <trip id="164" depart="0.00" from="688170737" to="688170737" departPos='random' departSpeed='max'/>
    <trip id="165" depart="0.00" from="688171462#0" to="672153002#6" departPos='random' departSpeed='max'/>
    <trip id="166" depart="0.00" from="688169646" to="672153002#4" departPos='random' departSpeed='max'/>
    <trip id="167" depart="0.00" from="688171462#0" to="688170737" departPos='random' departSpeed='max'/>
    <trip id="168" depart="0.00" from="50437161" to="688170737" departPos='random' departSpeed='max'/>
    <trip id="169" depart="0.00" from="687376010#4" to="672153002#6" departPos='random' departSpeed='max'/>
    <trip id="170" depart="0.00" from="688169646" to="672153002#6" departPos='random' departSpeed='max'/>
    <trip id="171" depart="0.00" from="-154286264" to="672153002#6" departPos='random' departSpeed='max'/>
    <trip id="172" depart="0.00" from="50437161" to="688170737" departPos='random' departSpeed='max'/>
    <trip id="173" depart="0.00" from="688171462#3" to="672153002#6" departPos='random' departSpeed='max'/>
    <trip id="174" depart="0.00" from="688169644#1" to="687375092#1" departPos='random' departSpeed='max'/>
    <trip id="175" depart="0.00" from="688199692" to="687376010#4" departPos='random' departSpeed='max'/>
    <trip id="176" depart="0.00" from="688171462#0" to="672153002#4" departPos='random' departSpeed='max'/>
    <trip id="177" depart="0.00" from="688199688#1" to="672153002#6" departPos='random' departSpeed='max'/>
    <trip id="178" depart="0.00" from="688171462#2" to="672153002#6" departPos='random' departSpeed='max'/>
    <trip id="179" depart="0.00" from="412441780#0" to="687376010#0" departPos='random' departSpeed='max'/>
    <trip id="180" depart="0.00" from="688169646" to="672153002#6" departPos='random' departSpeed='max'/>
    <trip id="181" depart="0.00" from="687376010#4" to="687376010#4" departPos='random' departSpeed='max'/>
    <trip id="182" depart="0.00" from="687376009" to="687376010#4" departPos='random' departSpeed='max'/>
    <trip id="183" depart="0.00" from="50437161" to="688170737" departPos='random' departSpeed='max'/>
    <trip id="184" depart="0.00" from="-154286264" to="688199688#1" departPos='random' departSpeed='max'/>
    <trip id="185" depart="0.00" from="687376010#4" to="688170737" departPos='random' departSpeed='max'/>
    <trip id="186" depart="0.00" from="688169646" to="688170737" departPos='random' departSpeed='max'/>
    <trip id="187" depart="0.00" from="687375092#0" to="412441780#2" departPos='random' departSpeed='max'/>
    <trip id="188" depart="0.00" from="688169646" to="672153002#6" departPos='random' departSpeed='max'/>
    <trip id="189" depart="0.00" from="50437161" to="688170737" departPos='random' departSpeed='max'/>
    <trip id="190" depart="0.00" from="688169646" to="672153002#6" departPos='random' departSpeed='max'/>
    <trip id="191" depart="0.00" from="50437161" to="687375092#1" departPos='random' departSpeed='max'/>
    <trip id="192" depart="0.00" from="687376010#2" to="672153002#6" departPos='random' departSpeed='max'/>
    <trip id="193" depart="0.00" from="412441780#0" to="687375092#2" departPos='random' departSpeed='max'/>
    <trip id="194" depart="0.00" from="688171462#0" to="688170737" departPos='random' departSpeed='max'/>
    <trip id="195" depart="0.00" from="688171462#0" to="688169645" departPos='random' departSpeed='max'/>
    <trip id="196" depart="0.00" from="50437161" to="687376010#4" departPos='random' departSpeed='max'/>
    <trip id="197" depart="0.00" from="-154286264" to="672153002#6" departPos='random' departSpeed='max'/>
    <trip id="198" depart="0.00" from="687376010#4" to="687376010#4" departPos='random' departSpeed='max'/>
    <trip id="199" depart="0.00" from="688169646" to="687376010#3" departPos='random' departSpeed='max'/>
    <trip id="200" depart="0.00" from="687376010#4" to="672153002#6" departPos='random' departSpeed='max'/>
    <trip id="201" depart="0.00" from="687376010#4" to="688171462#0" departPos='random' departSpeed='max'/>
    <trip id="202" depart="0.00" from="688169646" to="672153002#6" departPos='random' departSpeed='max'/>
    <trip id="203" depart="0.00" from="412441780#0" to="687376010#4" departPos='random' departSpeed='max'/>
    <trip id="204" depart="0.00" from="688169644#0" to="672153002#6" departPos='random' departSpeed='max'/>
    <trip id="205" depart="0.00" from="688171462#0" to="688170737" departPos='random' departSpeed='max'/>
    <trip id="206" depart="0.00" from="688169646" to="672153002#6" departPos='random' departSpeed='max'/>
    <trip id="207" depart="0.00" from="50437158" to="-688199688#1" departPos='random' departSpeed='max'/>
    <trip id="208" depart="0.00" from="50437161" to="687376010#4" departPos='random' departSpeed='max'/>
    <trip id="209" depart="0.00" from="688171462#0" to="412441780#2" departPos='random' departSpeed='max'/>
    <trip id="210" depart="0.00" from="687376010#4" to="688169646" departPos='random' departSpeed='max'/>
    <trip id="211" depart="0.00" from="50437157" to="688170737" departPos='random' departSpeed='max'/>
    <trip id="212" depart="0.00" from="687376010#4" to="672153002#6" departPos='random' departSpeed='max'/>
    <trip id="213" depart="0.00" from="688169646" to="-154286264" departPos='random' departSpeed='max'/>
    <trip id="214" depart="0.00" from="688169646" to="688170737" departPos='random' departSpeed='max'/>
    <trip id="215" depart="0.00" from="412441780#0" to="687376010#0" departPos='random' departSpeed='max'/>
    <trip id="216" depart="0.00" from="412441780#0" to="688199692" departPos='random' departSpeed='max'/>
    <trip id="217" depart="0.00" from="687376010#4" to="412441780#0" departPos='random' departSpeed='max'/>
    <trip id="218" depart="0.00" from="50437161" to="688170737" departPos='random' departSpeed='max'/>
    <trip id="219" depart="0.00" from="687376010#4" to="688170737" departPos='random' departSpeed='max'/>
    <trip id="220" depart="0.00" from="688169646" to="688214484#1" departPos='random' departSpeed='max'/>
    <trip id="221" depart="0.00" from="687376010#4" to="688199692" departPos='random' departSpeed='max'/>
    <trip id="222" depart="0.00" from="688171462#0" to="688169643#2" departPos='random' departSpeed='max'/>
    <trip id="223" depart="0.00" from="688169646" to="687376010#4" departPos='random' departSpeed='max'/>
    <trip id="224" depart="0.00" from="688171462#0" to="687376010#4" departPos='random' departSpeed='max'/>
    <trip id="225" depart="0.00" from="688171462#0" to="688170737" departPos='random' departSpeed='max'/>
    <trip id="226" depart="0.00" from="687376010#4" to="672153002#6" departPos='random' departSpeed='max'/>
    <trip id="227" depart="0.00" from="50437161" to="688169646" departPos='random' departSpeed='max'/>
    <trip id="228" depart="0.00" from="688169646" to="687376010#4" departPos='random' departSpeed='max'/>
    <trip id="229" depart="0.00" from="688169643#1" to="672153002#6" departPos='random' departSpeed='max'/>
    <trip id="230" depart="0.00" from="412441780#0" to="672153002#6" departPos='random' departSpeed='max'/>
    <trip id="231" depart="0.00" from="50437161" to="672153002#6" departPos='random' departSpeed='max'/>
    <trip id="232" depart="0.00" from="687376010#4" to="672153002#6" departPos='random' departSpeed='max'/>
    <trip id="233" depart="0.00" from="50437161" to="688170737" departPos='random' departSpeed='max'/>
    <trip id="234" depart="0.00" from="688169646" to="412441780#2" departPos='random' departSpeed='max'/>
    <trip id="235" depart="0.00" from="687376010#3" to="687376010#4" departPos='random' departSpeed='max'/>
    <trip id="236" depart="0.00" from="687376010#4" to="672153002#6" departPos='random' departSpeed='max'/>
    <trip id="237" depart="0.00" from="687376010#4" to="688171462#0" departPos='random' departSpeed='max'/>
    <trip id="238" depart="0.00" from="687376010#4" to="688170737" departPos='random' departSpeed='max'/>
    <trip id="239" depart="0.00" from="688171462#0" to="688170737" departPos='random' departSpeed='max'/>
    <trip id="240" depart="0.00" from="687375093" to="-154286264" departPos='random' departSpeed='max'/>
    <trip id="241" depart="0.00" from="672153002#4" to="688170737" departPos='random' departSpeed='max'/>
    <trip id="242" depart="0.00" from="688171462#0" to="688199692" departPos='random' departSpeed='max'/>
    <trip id="243" depart="0.00" from="687376010#4" to="688170737" departPos='random' departSpeed='max'/>
    <trip id="244" depart="0.00" from="687376010#4" to="688169643#2" departPos='random' departSpeed='max'/>
    <trip id="245" depart="0.00" from="50437161" to="672153002#6" departPos='random' departSpeed='max'/>
    <trip id="246" depart="0.00" from="687376010#4" to="154286264" departPos='random' departSpeed='max'/>
    <trip id="247" depart="0.00" from="672153002#1" to="688170737" departPos='random' departSpeed='max'/>
    <trip id="248" depart="0.00" from="687376010#3" to="672153002#6" departPos='random' departSpeed='max'/>
    <trip id="249" depart="0.00" from="687376010#4" to="672153002#5" departPos='random' departSpeed='max'/>
    <trip id="250" depart="0.00" from="688169643#1" to="154286264" departPos='random' departSpeed='max'/>
    <trip id="251" depart="0.00" from="687376010#1" to="687376010#4" departPos='random' departSpeed='max'/>
    <trip id="252" depart="0.00" from="-688199688#1" to="688170737" departPos='random' departSpeed='max'/>
    <trip id="253" depart="0.00" from="412441780#0" to="687376010#3" departPos='random' departSpeed='max'/>
    <trip id="254" depart="0.00" from="412441780#0" to="672153002#6" departPos='random' departSpeed='max'/>
    <trip id="255" depart="0.00" from="50437161" to="672153002#6" departPos='random' departSpeed='max'/>
    <trip id="256" depart="0.00" from="688169646" to="672153002#6" departPos='random' departSpeed='max'/>
    <trip id="257" depart="0.00" from="688169646" to="688170737" departPos='random' departSpeed='max'/>
    <trip id="258" depart="0.00" from="50437161" to="50437161" departPos='random' departSpeed='max'/>
    <trip id="259" depart="0.00" from="-154286264" to="687376010#4" departPos='random' departSpeed='max'/>
    <trip id="260" depart="0.00" from="688214484#1" to="672153002#6" departPos='random' departSpeed='max'/>
    <trip id="261" depart="0.00" from="688169645" to="688170737" departPos='random' departSpeed='max'/>
    <trip id="262" depart="0.00" from="688169646" to="688170737" departPos='random' departSpeed='max'/>
    <trip id="263" depart="0.00" from="688171462#0" to="672153002#6" departPos='random' departSpeed='max'/>
    <trip id="264" depart="0.00" from="-154286264" to="672153002#6" departPos='random' departSpeed='max'/>
    <trip id="265" depart="0.00" from="412441780#0" to="688170737" departPos='random' departSpeed='max'/>
    <trip id="266" depart="0.00" from="687376010#4" to="672153002#6" departPos='random' departSpeed='max'/>
    <trip id="267" depart="0.00" from="688169646" to="688170737" departPos='random' departSpeed='max'/>
    <trip id="268" depart="0.00" from="412441780#0" to="688169643#2" departPos='random' departSpeed='max'/>
    <trip id="269" depart="0.00" from="688169646" to="672153002#4" departPos='random' departSpeed='max'/>
    <trip id="270" depart="0.00" from="688171462#0" to="688214482" departPos='random' departSpeed='max'/>
    <trip id="271" depart="0.00" from="412441780#0" to="154286264" departPos='random' departSpeed='max'/>
    <trip id="272" depart="0.00" from="50437161" to="688170737" departPos='random' departSpeed='max'/>
    <trip id="273" depart="0.00" from="688171462#1" to="687375092#0" departPos='random' departSpeed='max'/>